  0
SECTION
  2
ENTITIES
999
DXF created from EnergyPlus
999
Program Version,EnergyPlus, Version 22.2.0-c249759bad, YMD=2022.11.30 11:28
999
Polygon Action,ThickPolyline
999
Color Scheme,Default
999
Text - True North
  0
TEXT
  8
1
  6
Continuous
 62
  3
 10
      -11.00000
 20
        3.00000
 30
        0.10000
 40
 .25
  1
True North
 41
 0.0
  7
MONOTXT
210
0.0
220
0.0
230
1.0
999
Text - Building Title
  0
TEXT
  8
1
  6
Continuous
 62
  3
 10
      -14.00000
 20
       -1.00000
 30
        0.10000
 40
 .4
  1
Building - Adult Education Center
 41
 0.0
  7
MONOTXT
210
0.0
220
0.0
230
1.0
999
North Arrow Stem
  0
3DFACE
  8
1
 62
  3
 10
      -10.00000
 20
        3.00000
 30
        0.10000
 11
      -10.00000
 21
        3.00000
 31
        0.00000
 12
      -10.00000
 22
        0.00000
 32
        0.00000
 13
      -10.00000
 23
        0.00000
 33
        0.10000
999
North Arrow Head 1
  0
3DFACE
  8
1
 62
  3
 10
      -10.00000
 20
        3.00000
 30
        0.10000
 11
      -10.00000
 21
        3.00000
 31
        0.00000
 12
      -10.50000
 22
        2.13397
 32
        0.00000
 13
      -10.50000
 23
        2.13397
 33
        0.10000
999
North Arrow Head 2
  0
3DFACE
  8
1
 62
  3
 10
      -10.00000
 20
        3.00000
 30
        0.10000
 11
      -10.00000
 21
        3.00000
 31
        0.00000
 12
       -9.50000
 22
        2.13397
 32
        0.00000
 13
       -9.50000
 23
        2.13397
 33
        0.10000
999
North Arrow Side 1
  0
3DFACE
  8
1
 62
  3
 10
      -10.50000
 20
        4.50000
 30
        0.10000
 11
      -10.50000
 21
        4.50000
 31
        0.00000
 12
      -10.50000
 22
        3.50000
 32
        0.00000
 13
      -10.50000
 23
        3.50000
 33
        0.10000
999
North Arrow Side 2
  0
3DFACE
  8
1
 62
  3
 10
      -10.50000
 20
        4.50000
 30
        0.10000
 11
      -10.50000
 21
        4.50000
 31
        0.00000
 12
       -9.50000
 22
        3.50000
 32
        0.00000
 13
       -9.50000
 23
        3.50000
 33
        0.10000
999
North Arrow Side 3
  0
3DFACE
  8
1
 62
  3
 10
       -9.50000
 20
        4.50000
 30
        0.10000
 11
       -9.50000
 21
        4.50000
 31
        0.00000
 12
       -9.50000
 22
        3.50000
 32
        0.00000
 13
       -9.50000
 23
        3.50000
 33
        0.10000
999
Zone Names
999
Zone=1:FULL_BUILDING_-_1_ZONE
999
FULL BUILDING - 1 ZONE:ZN001:WALL001
  0
3DFACE
  8
FULL_BUILDING_-_1_ZONE
 62
 43
 10
        0.00000
 20
        0.00000
 30
        3.04800
 11
        0.00000
 21
        0.00000
 31
        0.00000
 12
       15.24000
 22
        0.00000
 32
        0.00000
 13
       15.24000
 23
        0.00000
 33
        3.04800
999
FULL BUILDING - 1 ZONE:ZN001:WALL001:WIN001
  0
3DFACE
  8
FULL_BUILDING_-_1_ZONE
 62
143
 10
        1.70688
 20
        0.00000
 30
        2.74320
 11
        1.70688
 21
        0.00000
 31
        0.67056
 12
        4.41960
 22
        0.00000
 32
        0.67056
 13
        4.41960
 23
        0.00000
 33
        2.74320
999
FULL BUILDING - 1 ZONE:ZN001:WALL002
  0
3DFACE
  8
FULL_BUILDING_-_1_ZONE
 62
 43
 10
       15.24000
 20
        0.00000
 30
        3.04800
 11
       15.24000
 21
        0.00000
 31
        0.00000
 12
       15.24000
 22
        4.87680
 32
        0.00000
 13
       15.24000
 23
        4.87680
 33
        3.04800
999
FULL BUILDING - 1 ZONE:ZN001:WALL002:WIN001
  0
3DFACE
  8
FULL_BUILDING_-_1_ZONE
 62
143
 10
       15.24000
 20
        0.18288
 30
        2.95656
 11
       15.24000
 21
        0.18288
 31
        0.76200
 12
       15.24000
 22
        1.95072
 32
        0.76200
 13
       15.24000
 23
        1.95072
 33
        2.95656
999
FULL BUILDING - 1 ZONE:ZN001:WALL003
  0
3DFACE
  8
FULL_BUILDING_-_1_ZONE
 62
 43
 10
       15.24000
 20
        4.87680
 30
        3.04800
 11
       15.24000
 21
        4.87680
 31
        0.00000
 12
       49.68240
 22
        4.87680
 32
        0.00000
 13
       49.68240
 23
        4.87680
 33
        3.04800
999
FULL BUILDING - 1 ZONE:ZN001:WALL003:WIN001
  0
3DFACE
  8
FULL_BUILDING_-_1_ZONE
 62
143
 10
       15.42288
 20
        4.87680
 30
        3.01752
 11
       15.42288
 21
        4.87680
 31
        0.03048
 12
       26.70048
 22
        4.87680
 32
        0.03048
 13
       26.70048
 23
        4.87680
 33
        3.01752
999
FULL BUILDING - 1 ZONE:ZN001:WALL004
  0
3DFACE
  8
FULL_BUILDING_-_1_ZONE
 62
 43
 10
       49.68240
 20
        4.87680
 30
        3.04800
 11
       49.68240
 21
        4.87680
 31
        0.00000
 12
       49.68240
 22
       18.07464
 32
        0.00000
 13
       49.68240
 23
       18.07464
 33
        3.04800
999
FULL BUILDING - 1 ZONE:ZN001:WALL004:WIN001
  0
3DFACE
  8
FULL_BUILDING_-_1_ZONE
 62
143
 10
       49.68240
 20
        5.05968
 30
        3.01752
 11
       49.68240
 21
        5.05968
 31
        0.12192
 12
       49.68240
 22
        8.32104
 32
        0.12192
 13
       49.68240
 23
        8.32104
 33
        3.01752
999
FULL BUILDING - 1 ZONE:ZN001:WALL005
  0
3DFACE
  8
FULL_BUILDING_-_1_ZONE
 62
 43
 10
       49.68240
 20
       18.07464
 30
        3.04800
 11
       49.68240
 21
       18.07464
 31
        0.00000
 12
       39.31920
 22
       18.07464
 32
        0.00000
 13
       39.31920
 23
       18.07464
 33
        3.04800
999
FULL BUILDING - 1 ZONE:ZN001:WALL005:WIN001
  0
3DFACE
  8
FULL_BUILDING_-_1_ZONE
 62
143
 10
       49.49952
 20
       18.07464
 30
        3.01752
 11
       49.49952
 21
       18.07464
 31
        0.09144
 12
       46.90872
 22
       18.07464
 32
        0.09144
 13
       46.90872
 23
       18.07464
 33
        3.01752
999
FULL BUILDING - 1 ZONE:ZN001:WALL006
  0
3DFACE
  8
FULL_BUILDING_-_1_ZONE
 62
 43
 10
       39.31920
 20
       18.07464
 30
        3.04800
 11
       39.31920
 21
       18.07464
 31
        0.00000
 12
       39.31920
 22
       37.88664
 32
        0.00000
 13
       39.31920
 23
       37.88664
 33
        3.04800
999
FULL BUILDING - 1 ZONE:ZN001:WALL006:WIN001
  0
3DFACE
  8
FULL_BUILDING_-_1_ZONE
 62
143
 10
       39.31920
 20
       18.25752
 30
        3.01752
 11
       39.31920
 21
       18.25752
 31
        0.51816
 12
       39.31920
 22
       22.46376
 32
        0.51816
 13
       39.31920
 23
       22.46376
 33
        3.01752
999
FULL BUILDING - 1 ZONE:ZN001:WALL007
  0
3DFACE
  8
FULL_BUILDING_-_1_ZONE
 62
 43
 10
       39.31920
 20
       37.88664
 30
        3.04800
 11
       39.31920
 21
       37.88664
 31
        0.00000
 12
       27.43200
 22
       37.88664
 32
        0.00000
 13
       27.43200
 23
       37.88664
 33
        3.04800
999
FULL BUILDING - 1 ZONE:ZN001:WALL007:WIN001
  0
3DFACE
  8
FULL_BUILDING_-_1_ZONE
 62
143
 10
       39.13632
 20
       37.88664
 30
        3.01752
 11
       39.13632
 21
       37.88664
 31
        0.64008
 12
       36.72840
 22
       37.88664
 32
        0.64008
 13
       36.72840
 23
       37.88664
 33
        3.01752
999
FULL BUILDING - 1 ZONE:ZN001:WALL008
  0
3DFACE
  8
FULL_BUILDING_-_1_ZONE
 62
 43
 10
       27.43200
 20
       37.88664
 30
        3.04800
 11
       27.43200
 21
       37.88664
 31
        0.00000
 12
       27.43200
 22
       18.07464
 32
        0.00000
 13
       27.43200
 23
       18.07464
 33
        3.04800
999
FULL BUILDING - 1 ZONE:ZN001:WALL008:WIN001
  0
3DFACE
  8
FULL_BUILDING_-_1_ZONE
 62
143
 10
       27.43200
 20
       37.70376
 30
        3.01752
 11
       27.43200
 21
       37.70376
 31
        0.03048
 12
       27.43200
 22
       31.79064
 32
        0.03048
 13
       27.43200
 23
       31.79064
 33
        3.01752
999
FULL BUILDING - 1 ZONE:ZN001:WALL009
  0
3DFACE
  8
FULL_BUILDING_-_1_ZONE
 62
 43
 10
       27.43200
 20
       18.07464
 30
        3.04800
 11
       27.43200
 21
       18.07464
 31
        0.00000
 12
       21.33600
 22
       18.07464
 32
        0.00000
 13
       21.33600
 23
       18.07464
 33
        3.04800
999
FULL BUILDING - 1 ZONE:ZN001:WALL009:WIN001
  0
3DFACE
  8
FULL_BUILDING_-_1_ZONE
 62
143
 10
       27.24912
 20
       18.07464
 30
        2.95656
 11
       27.24912
 21
       18.07464
 31
        0.54864
 12
       25.29840
 22
       18.07464
 32
        0.54864
 13
       25.29840
 23
       18.07464
 33
        2.95656
999
FULL BUILDING - 1 ZONE:ZN001:WALL010
  0
3DFACE
  8
FULL_BUILDING_-_1_ZONE
 62
 43
 10
       21.33600
 20
       18.07464
 30
        3.04800
 11
       21.33600
 21
       18.07464
 31
        0.00000
 12
       21.33600
 22
       15.02664
 32
        0.00000
 13
       21.33600
 23
       15.02664
 33
        3.04800
999
FULL BUILDING - 1 ZONE:ZN001:WALL011
  0
3DFACE
  8
FULL_BUILDING_-_1_ZONE
 62
 43
 10
       21.33600
 20
       15.02664
 30
        3.04800
 11
       21.33600
 21
       15.02664
 31
        0.00000
 12
       15.24000
 22
       15.02664
 32
        0.00000
 13
       15.24000
 23
       15.02664
 33
        3.04800
999
FULL BUILDING - 1 ZONE:ZN001:WALL011:WIN001
  0
3DFACE
  8
FULL_BUILDING_-_1_ZONE
 62
143
 10
       21.15312
 20
       15.02664
 30
        2.95656
 11
       21.15312
 21
       15.02664
 31
        0.82296
 12
       19.41576
 22
       15.02664
 32
        0.82296
 13
       19.41576
 23
       15.02664
 33
        2.95656
999
FULL BUILDING - 1 ZONE:ZN001:WALL012
  0
3DFACE
  8
FULL_BUILDING_-_1_ZONE
 62
 43
 10
       15.24000
 20
       15.02664
 30
        3.04800
 11
       15.24000
 21
       15.02664
 31
        0.00000
 12
       15.24000
 22
       37.97808
 32
        0.00000
 13
       15.24000
 23
       37.97808
 33
        3.04800
999
FULL BUILDING - 1 ZONE:ZN001:WALL012:WIN001
  0
3DFACE
  8
FULL_BUILDING_-_1_ZONE
 62
143
 10
       15.24000
 20
       15.20952
 30
        3.01752
 11
       15.24000
 21
       15.20952
 31
        0.03048
 12
       15.24000
 22
       21.70176
 32
        0.03048
 13
       15.24000
 23
       21.70176
 33
        3.01752
999
FULL BUILDING - 1 ZONE:ZN001:WALL013
  0
3DFACE
  8
FULL_BUILDING_-_1_ZONE
 62
 43
 10
       15.24000
 20
       37.97808
 30
        3.04800
 11
       15.24000
 21
       37.97808
 31
        0.00000
 12
        0.00000
 22
       37.97808
 32
        0.00000
 13
        0.00000
 23
       37.97808
 33
        3.04800
999
FULL BUILDING - 1 ZONE:ZN001:WALL013:WIN001
  0
3DFACE
  8
FULL_BUILDING_-_1_ZONE
 62
143
 10
       15.05712
 20
       37.97808
 30
        3.01752
 11
       15.05712
 21
       37.97808
 31
        0.57912
 12
       11.85672
 22
       37.97808
 32
        0.57912
 13
       11.85672
 23
       37.97808
 33
        3.01752
999
FULL BUILDING - 1 ZONE:ZN001:WALL014
  0
3DFACE
  8
FULL_BUILDING_-_1_ZONE
 62
 43
 10
        0.00000
 20
       37.97808
 30
        3.04800
 11
        0.00000
 21
       37.97808
 31
        0.00000
 12
        0.00000
 22
        0.00000
 32
        0.00000
 13
        0.00000
 23
        0.00000
 33
        3.04800
999
FULL BUILDING - 1 ZONE:ZN001:WALL014:WIN001
  0
3DFACE
  8
FULL_BUILDING_-_1_ZONE
 62
143
 10
        0.00000
 20
       37.79520
 30
        3.01752
 11
        0.00000
 21
       37.79520
 31
        0.03048
 12
        0.00000
 22
       27.40152
 32
        0.03048
 13
        0.00000
 23
       27.40152
 33
        3.01752
999
FULL BUILDING - 1 ZONE:ZN001:FLR001
  0
3DFACE
  8
FULL_BUILDING_-_1_ZONE
 62
  8
 10
       35.35680
 20
        0.00000
 30
        0.00000
 11
        0.00000
 21
        0.00000
 31
        0.00000
 12
        0.00000
 22
       35.35680
 32
        0.00000
 13
       35.35680
 23
       35.35680
 33
        0.00000
999
FULL BUILDING - 1 ZONE:ZN001:ROOF001
  0
3DFACE
  8
FULL_BUILDING_-_1_ZONE
 62
 15
 10
        0.00000
 20
       35.35680
 30
        3.04800
 11
        0.00000
 21
        0.00000
 31
        3.04800
 12
       35.35680
 22
        0.00000
 32
        3.04800
 13
       35.35680
 23
       35.35680
 33
        3.04800
  0
ENDSEC
  0
EOF
