Program Version,EnergyPlus, Version 22.2.0-c249759bad, YMD=2022.11.30 11:28,
   ** Warning ** CalculateZoneVolume: 1 zone is not fully enclosed. For more details use:  Output:Diagnostics,DisplayExtrawarnings; 
   ************* Testing Individual Branch Integrity
   ************* All Branches passed integrity testing
   ************* Testing Individual Supply Air Path Integrity
   ************* All Supply Air Paths passed integrity testing
   ************* Testing Individual Return Air Path Integrity
   ************* All Return Air Paths passed integrity testing
   ************* No node connection errors were found.
   ************* Beginning Simulation
   ** Warning ** Data Exchange API: You seem to already have tried to get an Actuator Handle on this one.
   **   ~~~   ** Occurred for componentType='SYSTEM NODE SETPOINT', controlType='TEMPERATURE SETPOINT', uniqueKey='FULL BUILDING - 1 ZONE ZONE AIR NODE'.
   **   ~~~   ** The getActuatorHandle function will still return the handle (= 284) but caller should take note that there is a risk of overwritting.
   ** Warning ** Data Exchange API: You seem to already have tried to get an Actuator Handle on this one.
   **   ~~~   ** Occurred for componentType='SYSTEM NODE SETPOINT', controlType='TEMPERATURE SETPOINT', uniqueKey='FULL BUILDING - 1 ZONE ZONE AIR NODE'.
   **   ~~~   ** The getActuatorHandle function will still return the handle (= 284) but caller should take note that there is a risk of overwritting.
   ** Warning ** Data Exchange API: You seem to already have tried to get an Actuator Handle on this one.
   **   ~~~   ** Occurred for componentType='SYSTEM NODE SETPOINT', controlType='TEMPERATURE SETPOINT', uniqueKey='FULL BUILDING - 1 ZONE ZONE AIR NODE'.
   **   ~~~   ** The getActuatorHandle function will still return the handle (= 284) but caller should take note that there is a risk of overwritting.
   ** Warning ** Data Exchange API: You seem to already have tried to get an Actuator Handle on this one.
   **   ~~~   ** Occurred for componentType='SYSTEM NODE SETPOINT', controlType='TEMPERATURE SETPOINT', uniqueKey='FULL BUILDING - 1 ZONE ZONE AIR NODE'.
   **   ~~~   ** The getActuatorHandle function will still return the handle (= 284) but caller should take note that there is a risk of overwritting.
   ** Warning ** Data Exchange API: You seem to already have tried to get an Actuator Handle on this one.
   **   ~~~   ** Occurred for componentType='SYSTEM NODE SETPOINT', controlType='TEMPERATURE SETPOINT', uniqueKey='FULL BUILDING - 1 ZONE ZONE AIR NODE'.
   **   ~~~   ** The getActuatorHandle function will still return the handle (= 284) but caller should take note that there is a risk of overwritting.
   ** Warning ** Data Exchange API: You seem to already have tried to get an Actuator Handle on this one.
   **   ~~~   ** Occurred for componentType='SYSTEM NODE SETPOINT', controlType='TEMPERATURE SETPOINT', uniqueKey='FULL BUILDING - 1 ZONE ZONE AIR NODE'.
   **   ~~~   ** The getActuatorHandle function will still return the handle (= 284) but caller should take note that there is a risk of overwritting.
   ** Warning ** Data Exchange API: You seem to already have tried to get an Actuator Handle on this one.
   **   ~~~   ** Occurred for componentType='SYSTEM NODE SETPOINT', controlType='TEMPERATURE SETPOINT', uniqueKey='FULL BUILDING - 1 ZONE ZONE AIR NODE'.
   **   ~~~   ** The getActuatorHandle function will still return the handle (= 284) but caller should take note that there is a risk of overwritting.
   ** Warning ** Data Exchange API: You seem to already have tried to get an Actuator Handle on this one.
   **   ~~~   ** Occurred for componentType='SYSTEM NODE SETPOINT', controlType='TEMPERATURE SETPOINT', uniqueKey='FULL BUILDING - 1 ZONE ZONE AIR NODE'.
   **   ~~~   ** The getActuatorHandle function will still return the handle (= 284) but caller should take note that there is a risk of overwritting.
   ** Warning ** Data Exchange API: You seem to already have tried to get an Actuator Handle on this one.
   **   ~~~   ** Occurred for componentType='SYSTEM NODE SETPOINT', controlType='TEMPERATURE SETPOINT', uniqueKey='FULL BUILDING - 1 ZONE ZONE AIR NODE'.
   **   ~~~   ** The getActuatorHandle function will still return the handle (= 284) but caller should take note that there is a risk of overwritting.
   ** Warning ** Data Exchange API: You seem to already have tried to get an Actuator Handle on this one.
   **   ~~~   ** Occurred for componentType='SYSTEM NODE SETPOINT', controlType='TEMPERATURE SETPOINT', uniqueKey='FULL BUILDING - 1 ZONE ZONE AIR NODE'.
   **   ~~~   ** The getActuatorHandle function will still return the handle (= 284) but caller should take note that there is a risk of overwritting.
   ** Warning ** Data Exchange API: You seem to already have tried to get an Actuator Handle on this one.
   **   ~~~   ** Occurred for componentType='SYSTEM NODE SETPOINT', controlType='TEMPERATURE SETPOINT', uniqueKey='FULL BUILDING - 1 ZONE ZONE AIR NODE'.
   **   ~~~   ** The getActuatorHandle function will still return the handle (= 284) but caller should take note that there is a risk of overwritting.
   ** Warning ** Data Exchange API: You seem to already have tried to get an Actuator Handle on this one.
   **   ~~~   ** Occurred for componentType='SYSTEM NODE SETPOINT', controlType='TEMPERATURE SETPOINT', uniqueKey='FULL BUILDING - 1 ZONE ZONE AIR NODE'.
   **   ~~~   ** The getActuatorHandle function will still return the handle (= 284) but caller should take note that there is a risk of overwritting.
   ** Warning ** Data Exchange API: You seem to already have tried to get an Actuator Handle on this one.
   **   ~~~   ** Occurred for componentType='SYSTEM NODE SETPOINT', controlType='TEMPERATURE SETPOINT', uniqueKey='FULL BUILDING - 1 ZONE ZONE AIR NODE'.
   **   ~~~   ** The getActuatorHandle function will still return the handle (= 284) but caller should take note that there is a risk of overwritting.
   ** Warning ** Data Exchange API: You seem to already have tried to get an Actuator Handle on this one.
   **   ~~~   ** Occurred for componentType='SYSTEM NODE SETPOINT', controlType='TEMPERATURE SETPOINT', uniqueKey='FULL BUILDING - 1 ZONE ZONE AIR NODE'.
   **   ~~~   ** The getActuatorHandle function will still return the handle (= 284) but caller should take note that there is a risk of overwritting.
   ** Warning ** Data Exchange API: You seem to already have tried to get an Actuator Handle on this one.
   **   ~~~   ** Occurred for componentType='SYSTEM NODE SETPOINT', controlType='TEMPERATURE SETPOINT', uniqueKey='FULL BUILDING - 1 ZONE ZONE AIR NODE'.
   **   ~~~   ** The getActuatorHandle function will still return the handle (= 284) but caller should take note that there is a risk of overwritting.
   ** Warning ** Data Exchange API: You seem to already have tried to get an Actuator Handle on this one.
   **   ~~~   ** Occurred for componentType='SYSTEM NODE SETPOINT', controlType='TEMPERATURE SETPOINT', uniqueKey='FULL BUILDING - 1 ZONE ZONE AIR NODE'.
   **   ~~~   ** The getActuatorHandle function will still return the handle (= 284) but caller should take note that there is a risk of overwritting.
   ** Warning ** Data Exchange API: You seem to already have tried to get an Actuator Handle on this one.
   **   ~~~   ** Occurred for componentType='SYSTEM NODE SETPOINT', controlType='TEMPERATURE SETPOINT', uniqueKey='FULL BUILDING - 1 ZONE ZONE AIR NODE'.
   **   ~~~   ** The getActuatorHandle function will still return the handle (= 284) but caller should take note that there is a risk of overwritting.
   ** Warning ** Data Exchange API: You seem to already have tried to get an Actuator Handle on this one.
   **   ~~~   ** Occurred for componentType='SYSTEM NODE SETPOINT', controlType='TEMPERATURE SETPOINT', uniqueKey='FULL BUILDING - 1 ZONE ZONE AIR NODE'.
   **   ~~~   ** The getActuatorHandle function will still return the handle (= 284) but caller should take note that there is a risk of overwritting.
   ** Warning ** Data Exchange API: You seem to already have tried to get an Actuator Handle on this one.
   **   ~~~   ** Occurred for componentType='SYSTEM NODE SETPOINT', controlType='TEMPERATURE SETPOINT', uniqueKey='FULL BUILDING - 1 ZONE ZONE AIR NODE'.
   **   ~~~   ** The getActuatorHandle function will still return the handle (= 284) but caller should take note that there is a risk of overwritting.
   ** Warning ** Data Exchange API: You seem to already have tried to get an Actuator Handle on this one.
   **   ~~~   ** Occurred for componentType='SYSTEM NODE SETPOINT', controlType='TEMPERATURE SETPOINT', uniqueKey='FULL BUILDING - 1 ZONE ZONE AIR NODE'.
   **   ~~~   ** The getActuatorHandle function will still return the handle (= 284) but caller should take note that there is a risk of overwritting.
   ** Warning ** Data Exchange API: You seem to already have tried to get an Actuator Handle on this one.
   **   ~~~   ** Occurred for componentType='SYSTEM NODE SETPOINT', controlType='TEMPERATURE SETPOINT', uniqueKey='FULL BUILDING - 1 ZONE ZONE AIR NODE'.
   **   ~~~   ** The getActuatorHandle function will still return the handle (= 284) but caller should take note that there is a risk of overwritting.
   ** Warning ** Data Exchange API: You seem to already have tried to get an Actuator Handle on this one.
   **   ~~~   ** Occurred for componentType='SYSTEM NODE SETPOINT', controlType='TEMPERATURE SETPOINT', uniqueKey='FULL BUILDING - 1 ZONE ZONE AIR NODE'.
   **   ~~~   ** The getActuatorHandle function will still return the handle (= 284) but caller should take note that there is a risk of overwritting.
   ** Warning ** Data Exchange API: You seem to already have tried to get an Actuator Handle on this one.
   **   ~~~   ** Occurred for componentType='SYSTEM NODE SETPOINT', controlType='TEMPERATURE SETPOINT', uniqueKey='FULL BUILDING - 1 ZONE ZONE AIR NODE'.
   **   ~~~   ** The getActuatorHandle function will still return the handle (= 284) but caller should take note that there is a risk of overwritting.
   ** Warning ** Data Exchange API: You seem to already have tried to get an Actuator Handle on this one.
   **   ~~~   ** Occurred for componentType='SYSTEM NODE SETPOINT', controlType='TEMPERATURE SETPOINT', uniqueKey='FULL BUILDING - 1 ZONE ZONE AIR NODE'.
   **   ~~~   ** The getActuatorHandle function will still return the handle (= 284) but caller should take note that there is a risk of overwritting.
   ** Warning ** Data Exchange API: You seem to already have tried to get an Actuator Handle on this one.
   **   ~~~   ** Occurred for componentType='SYSTEM NODE SETPOINT', controlType='TEMPERATURE SETPOINT', uniqueKey='FULL BUILDING - 1 ZONE ZONE AIR NODE'.
   **   ~~~   ** The getActuatorHandle function will still return the handle (= 284) but caller should take note that there is a risk of overwritting.
   ** Warning ** Data Exchange API: You seem to already have tried to get an Actuator Handle on this one.
   **   ~~~   ** Occurred for componentType='SYSTEM NODE SETPOINT', controlType='TEMPERATURE SETPOINT', uniqueKey='FULL BUILDING - 1 ZONE ZONE AIR NODE'.
   **   ~~~   ** The getActuatorHandle function will still return the handle (= 284) but caller should take note that there is a risk of overwritting.
   ** Warning ** Data Exchange API: You seem to already have tried to get an Actuator Handle on this one.
   **   ~~~   ** Occurred for componentType='SYSTEM NODE SETPOINT', controlType='TEMPERATURE SETPOINT', uniqueKey='FULL BUILDING - 1 ZONE ZONE AIR NODE'.
   **   ~~~   ** The getActuatorHandle function will still return the handle (= 284) but caller should take note that there is a risk of overwritting.
   ** Warning ** Data Exchange API: You seem to already have tried to get an Actuator Handle on this one.
   **   ~~~   ** Occurred for componentType='SYSTEM NODE SETPOINT', controlType='TEMPERATURE SETPOINT', uniqueKey='FULL BUILDING - 1 ZONE ZONE AIR NODE'.
   **   ~~~   ** The getActuatorHandle function will still return the handle (= 284) but caller should take note that there is a risk of overwritting.
   ** Warning ** Data Exchange API: You seem to already have tried to get an Actuator Handle on this one.
   **   ~~~   ** Occurred for componentType='SYSTEM NODE SETPOINT', controlType='TEMPERATURE SETPOINT', uniqueKey='FULL BUILDING - 1 ZONE ZONE AIR NODE'.
   **   ~~~   ** The getActuatorHandle function will still return the handle (= 284) but caller should take note that there is a risk of overwritting.
   ** Warning ** Data Exchange API: You seem to already have tried to get an Actuator Handle on this one.
   **   ~~~   ** Occurred for componentType='SYSTEM NODE SETPOINT', controlType='TEMPERATURE SETPOINT', uniqueKey='FULL BUILDING - 1 ZONE ZONE AIR NODE'.
   **   ~~~   ** The getActuatorHandle function will still return the handle (= 284) but caller should take note that there is a risk of overwritting.
   ** Warning ** Data Exchange API: You seem to already have tried to get an Actuator Handle on this one.
   **   ~~~   ** Occurred for componentType='SYSTEM NODE SETPOINT', controlType='TEMPERATURE SETPOINT', uniqueKey='FULL BUILDING - 1 ZONE ZONE AIR NODE'.
   **   ~~~   ** The getActuatorHandle function will still return the handle (= 284) but caller should take note that there is a risk of overwritting.
   ** Warning ** Data Exchange API: You seem to already have tried to get an Actuator Handle on this one.
   **   ~~~   ** Occurred for componentType='SYSTEM NODE SETPOINT', controlType='TEMPERATURE SETPOINT', uniqueKey='FULL BUILDING - 1 ZONE ZONE AIR NODE'.
   **   ~~~   ** The getActuatorHandle function will still return the handle (= 284) but caller should take note that there is a risk of overwritting.
   ** Warning ** Data Exchange API: You seem to already have tried to get an Actuator Handle on this one.
   **   ~~~   ** Occurred for componentType='SYSTEM NODE SETPOINT', controlType='TEMPERATURE SETPOINT', uniqueKey='FULL BUILDING - 1 ZONE ZONE AIR NODE'.
   **   ~~~   ** The getActuatorHandle function will still return the handle (= 284) but caller should take note that there is a risk of overwritting.
   ** Warning ** Data Exchange API: You seem to already have tried to get an Actuator Handle on this one.
   **   ~~~   ** Occurred for componentType='SYSTEM NODE SETPOINT', controlType='TEMPERATURE SETPOINT', uniqueKey='FULL BUILDING - 1 ZONE ZONE AIR NODE'.
   **   ~~~   ** The getActuatorHandle function will still return the handle (= 284) but caller should take note that there is a risk of overwritting.
   ** Warning ** Data Exchange API: You seem to already have tried to get an Actuator Handle on this one.
   **   ~~~   ** Occurred for componentType='SYSTEM NODE SETPOINT', controlType='TEMPERATURE SETPOINT', uniqueKey='FULL BUILDING - 1 ZONE ZONE AIR NODE'.
   **   ~~~   ** The getActuatorHandle function will still return the handle (= 284) but caller should take note that there is a risk of overwritting.
   ** Warning ** Data Exchange API: You seem to already have tried to get an Actuator Handle on this one.
   **   ~~~   ** Occurred for componentType='SYSTEM NODE SETPOINT', controlType='TEMPERATURE SETPOINT', uniqueKey='FULL BUILDING - 1 ZONE ZONE AIR NODE'.
   **   ~~~   ** The getActuatorHandle function will still return the handle (= 284) but caller should take note that there is a risk of overwritting.
   ** Warning ** Data Exchange API: You seem to already have tried to get an Actuator Handle on this one.
   **   ~~~   ** Occurred for componentType='SYSTEM NODE SETPOINT', controlType='TEMPERATURE SETPOINT', uniqueKey='FULL BUILDING - 1 ZONE ZONE AIR NODE'.
   **   ~~~   ** The getActuatorHandle function will still return the handle (= 284) but caller should take note that there is a risk of overwritting.
   ** Warning ** Data Exchange API: You seem to already have tried to get an Actuator Handle on this one.
   **   ~~~   ** Occurred for componentType='SYSTEM NODE SETPOINT', controlType='TEMPERATURE SETPOINT', uniqueKey='FULL BUILDING - 1 ZONE ZONE AIR NODE'.
   **   ~~~   ** The getActuatorHandle function will still return the handle (= 284) but caller should take note that there is a risk of overwritting.
   ** Warning ** Data Exchange API: You seem to already have tried to get an Actuator Handle on this one.
   **   ~~~   ** Occurred for componentType='SYSTEM NODE SETPOINT', controlType='TEMPERATURE SETPOINT', uniqueKey='FULL BUILDING - 1 ZONE ZONE AIR NODE'.
   **   ~~~   ** The getActuatorHandle function will still return the handle (= 284) but caller should take note that there is a risk of overwritting.
   ** Warning ** Data Exchange API: You seem to already have tried to get an Actuator Handle on this one.
   **   ~~~   ** Occurred for componentType='SYSTEM NODE SETPOINT', controlType='TEMPERATURE SETPOINT', uniqueKey='FULL BUILDING - 1 ZONE ZONE AIR NODE'.
   **   ~~~   ** The getActuatorHandle function will still return the handle (= 284) but caller should take note that there is a risk of overwritting.
   ** Warning ** Data Exchange API: You seem to already have tried to get an Actuator Handle on this one.
   **   ~~~   ** Occurred for componentType='SYSTEM NODE SETPOINT', controlType='TEMPERATURE SETPOINT', uniqueKey='FULL BUILDING - 1 ZONE ZONE AIR NODE'.
   **   ~~~   ** The getActuatorHandle function will still return the handle (= 284) but caller should take note that there is a risk of overwritting.
   ** Warning ** Data Exchange API: You seem to already have tried to get an Actuator Handle on this one.
   **   ~~~   ** Occurred for componentType='SYSTEM NODE SETPOINT', controlType='TEMPERATURE SETPOINT', uniqueKey='FULL BUILDING - 1 ZONE ZONE AIR NODE'.
   **   ~~~   ** The getActuatorHandle function will still return the handle (= 284) but caller should take note that there is a risk of overwritting.
   ** Warning ** Data Exchange API: You seem to already have tried to get an Actuator Handle on this one.
   **   ~~~   ** Occurred for componentType='SYSTEM NODE SETPOINT', controlType='TEMPERATURE SETPOINT', uniqueKey='FULL BUILDING - 1 ZONE ZONE AIR NODE'.
   **   ~~~   ** The getActuatorHandle function will still return the handle (= 284) but caller should take note that there is a risk of overwritting.
   ** Warning ** Data Exchange API: You seem to already have tried to get an Actuator Handle on this one.
   **   ~~~   ** Occurred for componentType='SYSTEM NODE SETPOINT', controlType='TEMPERATURE SETPOINT', uniqueKey='FULL BUILDING - 1 ZONE ZONE AIR NODE'.
   **   ~~~   ** The getActuatorHandle function will still return the handle (= 284) but caller should take note that there is a risk of overwritting.
   ** Warning ** Data Exchange API: You seem to already have tried to get an Actuator Handle on this one.
   **   ~~~   ** Occurred for componentType='SYSTEM NODE SETPOINT', controlType='TEMPERATURE SETPOINT', uniqueKey='FULL BUILDING - 1 ZONE ZONE AIR NODE'.
   **   ~~~   ** The getActuatorHandle function will still return the handle (= 284) but caller should take note that there is a risk of overwritting.
   ** Warning ** Data Exchange API: You seem to already have tried to get an Actuator Handle on this one.
   **   ~~~   ** Occurred for componentType='SYSTEM NODE SETPOINT', controlType='TEMPERATURE SETPOINT', uniqueKey='FULL BUILDING - 1 ZONE ZONE AIR NODE'.
   **   ~~~   ** The getActuatorHandle function will still return the handle (= 284) but caller should take note that there is a risk of overwritting.
   ** Warning ** Data Exchange API: You seem to already have tried to get an Actuator Handle on this one.
   **   ~~~   ** Occurred for componentType='SYSTEM NODE SETPOINT', controlType='TEMPERATURE SETPOINT', uniqueKey='FULL BUILDING - 1 ZONE ZONE AIR NODE'.
   **   ~~~   ** The getActuatorHandle function will still return the handle (= 284) but caller should take note that there is a risk of overwritting.
   ** Warning ** Data Exchange API: You seem to already have tried to get an Actuator Handle on this one.
   **   ~~~   ** Occurred for componentType='SYSTEM NODE SETPOINT', controlType='TEMPERATURE SETPOINT', uniqueKey='FULL BUILDING - 1 ZONE ZONE AIR NODE'.
   **   ~~~   ** The getActuatorHandle function will still return the handle (= 284) but caller should take note that there is a risk of overwritting.
   ** Warning ** Data Exchange API: You seem to already have tried to get an Actuator Handle on this one.
   **   ~~~   ** Occurred for componentType='SYSTEM NODE SETPOINT', controlType='TEMPERATURE SETPOINT', uniqueKey='FULL BUILDING - 1 ZONE ZONE AIR NODE'.
   **   ~~~   ** The getActuatorHandle function will still return the handle (= 284) but caller should take note that there is a risk of overwritting.
   ** Warning ** Data Exchange API: You seem to already have tried to get an Actuator Handle on this one.
   **   ~~~   ** Occurred for componentType='SYSTEM NODE SETPOINT', controlType='TEMPERATURE SETPOINT', uniqueKey='FULL BUILDING - 1 ZONE ZONE AIR NODE'.
   **   ~~~   ** The getActuatorHandle function will still return the handle (= 284) but caller should take note that there is a risk of overwritting.
   ** Warning ** Data Exchange API: You seem to already have tried to get an Actuator Handle on this one.
   **   ~~~   ** Occurred for componentType='SYSTEM NODE SETPOINT', controlType='TEMPERATURE SETPOINT', uniqueKey='FULL BUILDING - 1 ZONE ZONE AIR NODE'.
   **   ~~~   ** The getActuatorHandle function will still return the handle (= 284) but caller should take note that there is a risk of overwritting.
   ** Warning ** Data Exchange API: You seem to already have tried to get an Actuator Handle on this one.
   **   ~~~   ** Occurred for componentType='SYSTEM NODE SETPOINT', controlType='TEMPERATURE SETPOINT', uniqueKey='FULL BUILDING - 1 ZONE ZONE AIR NODE'.
   **   ~~~   ** The getActuatorHandle function will still return the handle (= 284) but caller should take note that there is a risk of overwritting.
   ** Warning ** Data Exchange API: You seem to already have tried to get an Actuator Handle on this one.
   **   ~~~   ** Occurred for componentType='SYSTEM NODE SETPOINT', controlType='TEMPERATURE SETPOINT', uniqueKey='FULL BUILDING - 1 ZONE ZONE AIR NODE'.
   **   ~~~   ** The getActuatorHandle function will still return the handle (= 284) but caller should take note that there is a risk of overwritting.
   ** Warning ** Data Exchange API: You seem to already have tried to get an Actuator Handle on this one.
   **   ~~~   ** Occurred for componentType='SYSTEM NODE SETPOINT', controlType='TEMPERATURE SETPOINT', uniqueKey='FULL BUILDING - 1 ZONE ZONE AIR NODE'.
   **   ~~~   ** The getActuatorHandle function will still return the handle (= 284) but caller should take note that there is a risk of overwritting.
   ** Warning ** Data Exchange API: You seem to already have tried to get an Actuator Handle on this one.
   **   ~~~   ** Occurred for componentType='SYSTEM NODE SETPOINT', controlType='TEMPERATURE SETPOINT', uniqueKey='FULL BUILDING - 1 ZONE ZONE AIR NODE'.
   **   ~~~   ** The getActuatorHandle function will still return the handle (= 284) but caller should take note that there is a risk of overwritting.
   ** Warning ** Data Exchange API: You seem to already have tried to get an Actuator Handle on this one.
   **   ~~~   ** Occurred for componentType='SYSTEM NODE SETPOINT', controlType='TEMPERATURE SETPOINT', uniqueKey='FULL BUILDING - 1 ZONE ZONE AIR NODE'.
   **   ~~~   ** The getActuatorHandle function will still return the handle (= 284) but caller should take note that there is a risk of overwritting.
   ** Warning ** Data Exchange API: You seem to already have tried to get an Actuator Handle on this one.
   **   ~~~   ** Occurred for componentType='SYSTEM NODE SETPOINT', controlType='TEMPERATURE SETPOINT', uniqueKey='FULL BUILDING - 1 ZONE ZONE AIR NODE'.
   **   ~~~   ** The getActuatorHandle function will still return the handle (= 284) but caller should take note that there is a risk of overwritting.
   ** Warning ** Data Exchange API: You seem to already have tried to get an Actuator Handle on this one.
   **   ~~~   ** Occurred for componentType='SYSTEM NODE SETPOINT', controlType='TEMPERATURE SETPOINT', uniqueKey='FULL BUILDING - 1 ZONE ZONE AIR NODE'.
   **   ~~~   ** The getActuatorHandle function will still return the handle (= 284) but caller should take note that there is a risk of overwritting.
   ** Warning ** Data Exchange API: You seem to already have tried to get an Actuator Handle on this one.
   **   ~~~   ** Occurred for componentType='SYSTEM NODE SETPOINT', controlType='TEMPERATURE SETPOINT', uniqueKey='FULL BUILDING - 1 ZONE ZONE AIR NODE'.
   **   ~~~   ** The getActuatorHandle function will still return the handle (= 284) but caller should take note that there is a risk of overwritting.
   ** Warning ** Data Exchange API: You seem to already have tried to get an Actuator Handle on this one.
   **   ~~~   ** Occurred for componentType='SYSTEM NODE SETPOINT', controlType='TEMPERATURE SETPOINT', uniqueKey='FULL BUILDING - 1 ZONE ZONE AIR NODE'.
   **   ~~~   ** The getActuatorHandle function will still return the handle (= 284) but caller should take note that there is a risk of overwritting.
   ** Warning ** Data Exchange API: You seem to already have tried to get an Actuator Handle on this one.
   **   ~~~   ** Occurred for componentType='SYSTEM NODE SETPOINT', controlType='TEMPERATURE SETPOINT', uniqueKey='FULL BUILDING - 1 ZONE ZONE AIR NODE'.
   **   ~~~   ** The getActuatorHandle function will still return the handle (= 284) but caller should take note that there is a risk of overwritting.
   ** Warning ** Data Exchange API: You seem to already have tried to get an Actuator Handle on this one.
   **   ~~~   ** Occurred for componentType='SYSTEM NODE SETPOINT', controlType='TEMPERATURE SETPOINT', uniqueKey='FULL BUILDING - 1 ZONE ZONE AIR NODE'.
   **   ~~~   ** The getActuatorHandle function will still return the handle (= 284) but caller should take note that there is a risk of overwritting.
   ** Warning ** Data Exchange API: You seem to already have tried to get an Actuator Handle on this one.
   **   ~~~   ** Occurred for componentType='SYSTEM NODE SETPOINT', controlType='TEMPERATURE SETPOINT', uniqueKey='FULL BUILDING - 1 ZONE ZONE AIR NODE'.
   **   ~~~   ** The getActuatorHandle function will still return the handle (= 284) but caller should take note that there is a risk of overwritting.
   ** Warning ** Data Exchange API: You seem to already have tried to get an Actuator Handle on this one.
   **   ~~~   ** Occurred for componentType='SYSTEM NODE SETPOINT', controlType='TEMPERATURE SETPOINT', uniqueKey='FULL BUILDING - 1 ZONE ZONE AIR NODE'.
   **   ~~~   ** The getActuatorHandle function will still return the handle (= 284) but caller should take note that there is a risk of overwritting.
   ** Warning ** Data Exchange API: You seem to already have tried to get an Actuator Handle on this one.
   **   ~~~   ** Occurred for componentType='SYSTEM NODE SETPOINT', controlType='TEMPERATURE SETPOINT', uniqueKey='FULL BUILDING - 1 ZONE ZONE AIR NODE'.
   **   ~~~   ** The getActuatorHandle function will still return the handle (= 284) but caller should take note that there is a risk of overwritting.
   ** Warning ** Data Exchange API: You seem to already have tried to get an Actuator Handle on this one.
   **   ~~~   ** Occurred for componentType='SYSTEM NODE SETPOINT', controlType='TEMPERATURE SETPOINT', uniqueKey='FULL BUILDING - 1 ZONE ZONE AIR NODE'.
   **   ~~~   ** The getActuatorHandle function will still return the handle (= 284) but caller should take note that there is a risk of overwritting.
   ** Warning ** Data Exchange API: You seem to already have tried to get an Actuator Handle on this one.
   **   ~~~   ** Occurred for componentType='SYSTEM NODE SETPOINT', controlType='TEMPERATURE SETPOINT', uniqueKey='FULL BUILDING - 1 ZONE ZONE AIR NODE'.
   **   ~~~   ** The getActuatorHandle function will still return the handle (= 284) but caller should take note that there is a risk of overwritting.
   ** Warning ** Data Exchange API: You seem to already have tried to get an Actuator Handle on this one.
   **   ~~~   ** Occurred for componentType='SYSTEM NODE SETPOINT', controlType='TEMPERATURE SETPOINT', uniqueKey='FULL BUILDING - 1 ZONE ZONE AIR NODE'.
   **   ~~~   ** The getActuatorHandle function will still return the handle (= 284) but caller should take note that there is a risk of overwritting.
   ** Warning ** Data Exchange API: You seem to already have tried to get an Actuator Handle on this one.
   **   ~~~   ** Occurred for componentType='SYSTEM NODE SETPOINT', controlType='TEMPERATURE SETPOINT', uniqueKey='FULL BUILDING - 1 ZONE ZONE AIR NODE'.
   **   ~~~   ** The getActuatorHandle function will still return the handle (= 284) but caller should take note that there is a risk of overwritting.
   ** Warning ** Data Exchange API: You seem to already have tried to get an Actuator Handle on this one.
   **   ~~~   ** Occurred for componentType='SYSTEM NODE SETPOINT', controlType='TEMPERATURE SETPOINT', uniqueKey='FULL BUILDING - 1 ZONE ZONE AIR NODE'.
   **   ~~~   ** The getActuatorHandle function will still return the handle (= 284) but caller should take note that there is a risk of overwritting.
   ** Warning ** Data Exchange API: You seem to already have tried to get an Actuator Handle on this one.
   **   ~~~   ** Occurred for componentType='SYSTEM NODE SETPOINT', controlType='TEMPERATURE SETPOINT', uniqueKey='FULL BUILDING - 1 ZONE ZONE AIR NODE'.
   **   ~~~   ** The getActuatorHandle function will still return the handle (= 284) but caller should take note that there is a risk of overwritting.
   ** Warning ** Data Exchange API: You seem to already have tried to get an Actuator Handle on this one.
   **   ~~~   ** Occurred for componentType='SYSTEM NODE SETPOINT', controlType='TEMPERATURE SETPOINT', uniqueKey='FULL BUILDING - 1 ZONE ZONE AIR NODE'.
   **   ~~~   ** The getActuatorHandle function will still return the handle (= 284) but caller should take note that there is a risk of overwritting.
   ** Warning ** Data Exchange API: You seem to already have tried to get an Actuator Handle on this one.
   **   ~~~   ** Occurred for componentType='SYSTEM NODE SETPOINT', controlType='TEMPERATURE SETPOINT', uniqueKey='FULL BUILDING - 1 ZONE ZONE AIR NODE'.
   **   ~~~   ** The getActuatorHandle function will still return the handle (= 284) but caller should take note that there is a risk of overwritting.
   ** Warning ** Data Exchange API: You seem to already have tried to get an Actuator Handle on this one.
   **   ~~~   ** Occurred for componentType='SYSTEM NODE SETPOINT', controlType='TEMPERATURE SETPOINT', uniqueKey='FULL BUILDING - 1 ZONE ZONE AIR NODE'.
   **   ~~~   ** The getActuatorHandle function will still return the handle (= 284) but caller should take note that there is a risk of overwritting.
   ** Warning ** Data Exchange API: You seem to already have tried to get an Actuator Handle on this one.
   **   ~~~   ** Occurred for componentType='SYSTEM NODE SETPOINT', controlType='TEMPERATURE SETPOINT', uniqueKey='FULL BUILDING - 1 ZONE ZONE AIR NODE'.
   **   ~~~   ** The getActuatorHandle function will still return the handle (= 284) but caller should take note that there is a risk of overwritting.
   ** Warning ** Data Exchange API: You seem to already have tried to get an Actuator Handle on this one.
   **   ~~~   ** Occurred for componentType='SYSTEM NODE SETPOINT', controlType='TEMPERATURE SETPOINT', uniqueKey='FULL BUILDING - 1 ZONE ZONE AIR NODE'.
   **   ~~~   ** The getActuatorHandle function will still return the handle (= 284) but caller should take note that there is a risk of overwritting.
   ** Warning ** Data Exchange API: You seem to already have tried to get an Actuator Handle on this one.
   **   ~~~   ** Occurred for componentType='SYSTEM NODE SETPOINT', controlType='TEMPERATURE SETPOINT', uniqueKey='FULL BUILDING - 1 ZONE ZONE AIR NODE'.
   **   ~~~   ** The getActuatorHandle function will still return the handle (= 284) but caller should take note that there is a risk of overwritting.
   ** Warning ** Data Exchange API: You seem to already have tried to get an Actuator Handle on this one.
   **   ~~~   ** Occurred for componentType='SYSTEM NODE SETPOINT', controlType='TEMPERATURE SETPOINT', uniqueKey='FULL BUILDING - 1 ZONE ZONE AIR NODE'.
   **   ~~~   ** The getActuatorHandle function will still return the handle (= 284) but caller should take note that there is a risk of overwritting.
   ** Warning ** Data Exchange API: You seem to already have tried to get an Actuator Handle on this one.
   **   ~~~   ** Occurred for componentType='SYSTEM NODE SETPOINT', controlType='TEMPERATURE SETPOINT', uniqueKey='FULL BUILDING - 1 ZONE ZONE AIR NODE'.
   **   ~~~   ** The getActuatorHandle function will still return the handle (= 284) but caller should take note that there is a risk of overwritting.
   ** Warning ** Data Exchange API: You seem to already have tried to get an Actuator Handle on this one.
   **   ~~~   ** Occurred for componentType='SYSTEM NODE SETPOINT', controlType='TEMPERATURE SETPOINT', uniqueKey='FULL BUILDING - 1 ZONE ZONE AIR NODE'.
   **   ~~~   ** The getActuatorHandle function will still return the handle (= 284) but caller should take note that there is a risk of overwritting.
   ** Warning ** Data Exchange API: You seem to already have tried to get an Actuator Handle on this one.
   **   ~~~   ** Occurred for componentType='SYSTEM NODE SETPOINT', controlType='TEMPERATURE SETPOINT', uniqueKey='FULL BUILDING - 1 ZONE ZONE AIR NODE'.
   **   ~~~   ** The getActuatorHandle function will still return the handle (= 284) but caller should take note that there is a risk of overwritting.
   ** Warning ** Data Exchange API: You seem to already have tried to get an Actuator Handle on this one.
   **   ~~~   ** Occurred for componentType='SYSTEM NODE SETPOINT', controlType='TEMPERATURE SETPOINT', uniqueKey='FULL BUILDING - 1 ZONE ZONE AIR NODE'.
   **   ~~~   ** The getActuatorHandle function will still return the handle (= 284) but caller should take note that there is a risk of overwritting.
   ** Warning ** Data Exchange API: You seem to already have tried to get an Actuator Handle on this one.
   **   ~~~   ** Occurred for componentType='SYSTEM NODE SETPOINT', controlType='TEMPERATURE SETPOINT', uniqueKey='FULL BUILDING - 1 ZONE ZONE AIR NODE'.
   **   ~~~   ** The getActuatorHandle function will still return the handle (= 284) but caller should take note that there is a risk of overwritting.
   ** Warning ** Data Exchange API: You seem to already have tried to get an Actuator Handle on this one.
   **   ~~~   ** Occurred for componentType='SYSTEM NODE SETPOINT', controlType='TEMPERATURE SETPOINT', uniqueKey='FULL BUILDING - 1 ZONE ZONE AIR NODE'.
   **   ~~~   ** The getActuatorHandle function will still return the handle (= 284) but caller should take note that there is a risk of overwritting.
   ** Warning ** Data Exchange API: You seem to already have tried to get an Actuator Handle on this one.
   **   ~~~   ** Occurred for componentType='SYSTEM NODE SETPOINT', controlType='TEMPERATURE SETPOINT', uniqueKey='FULL BUILDING - 1 ZONE ZONE AIR NODE'.
   **   ~~~   ** The getActuatorHandle function will still return the handle (= 284) but caller should take note that there is a risk of overwritting.
   ** Warning ** Data Exchange API: You seem to already have tried to get an Actuator Handle on this one.
   **   ~~~   ** Occurred for componentType='SYSTEM NODE SETPOINT', controlType='TEMPERATURE SETPOINT', uniqueKey='FULL BUILDING - 1 ZONE ZONE AIR NODE'.
   **   ~~~   ** The getActuatorHandle function will still return the handle (= 284) but caller should take note that there is a risk of overwritting.
   ** Warning ** Data Exchange API: You seem to already have tried to get an Actuator Handle on this one.
   **   ~~~   ** Occurred for componentType='SYSTEM NODE SETPOINT', controlType='TEMPERATURE SETPOINT', uniqueKey='FULL BUILDING - 1 ZONE ZONE AIR NODE'.
   **   ~~~   ** The getActuatorHandle function will still return the handle (= 284) but caller should take note that there is a risk of overwritting.
   ** Warning ** Data Exchange API: You seem to already have tried to get an Actuator Handle on this one.
   **   ~~~   ** Occurred for componentType='SYSTEM NODE SETPOINT', controlType='TEMPERATURE SETPOINT', uniqueKey='FULL BUILDING - 1 ZONE ZONE AIR NODE'.
   **   ~~~   ** The getActuatorHandle function will still return the handle (= 284) but caller should take note that there is a risk of overwritting.
   ** Warning ** Data Exchange API: You seem to already have tried to get an Actuator Handle on this one.
   **   ~~~   ** Occurred for componentType='SYSTEM NODE SETPOINT', controlType='TEMPERATURE SETPOINT', uniqueKey='FULL BUILDING - 1 ZONE ZONE AIR NODE'.
   **   ~~~   ** The getActuatorHandle function will still return the handle (= 284) but caller should take note that there is a risk of overwritting.
   ** Warning ** Data Exchange API: You seem to already have tried to get an Actuator Handle on this one.
   **   ~~~   ** Occurred for componentType='SYSTEM NODE SETPOINT', controlType='TEMPERATURE SETPOINT', uniqueKey='FULL BUILDING - 1 ZONE ZONE AIR NODE'.
   **   ~~~   ** The getActuatorHandle function will still return the handle (= 284) but caller should take note that there is a risk of overwritting.
   ** Warning ** Data Exchange API: You seem to already have tried to get an Actuator Handle on this one.
   **   ~~~   ** Occurred for componentType='SYSTEM NODE SETPOINT', controlType='TEMPERATURE SETPOINT', uniqueKey='FULL BUILDING - 1 ZONE ZONE AIR NODE'.
   **   ~~~   ** The getActuatorHandle function will still return the handle (= 284) but caller should take note that there is a risk of overwritting.
   ** Warning ** Data Exchange API: You seem to already have tried to get an Actuator Handle on this one.
   **   ~~~   ** Occurred for componentType='SYSTEM NODE SETPOINT', controlType='TEMPERATURE SETPOINT', uniqueKey='FULL BUILDING - 1 ZONE ZONE AIR NODE'.
   **   ~~~   ** The getActuatorHandle function will still return the handle (= 284) but caller should take note that there is a risk of overwritting.
   ** Warning ** Data Exchange API: You seem to already have tried to get an Actuator Handle on this one.
   **   ~~~   ** Occurred for componentType='SYSTEM NODE SETPOINT', controlType='TEMPERATURE SETPOINT', uniqueKey='FULL BUILDING - 1 ZONE ZONE AIR NODE'.
   **   ~~~   ** The getActuatorHandle function will still return the handle (= 284) but caller should take note that there is a risk of overwritting.
   ** Warning ** Data Exchange API: You seem to already have tried to get an Actuator Handle on this one.
   **   ~~~   ** Occurred for componentType='SYSTEM NODE SETPOINT', controlType='TEMPERATURE SETPOINT', uniqueKey='FULL BUILDING - 1 ZONE ZONE AIR NODE'.
   **   ~~~   ** The getActuatorHandle function will still return the handle (= 284) but caller should take note that there is a risk of overwritting.
   ** Warning ** Data Exchange API: You seem to already have tried to get an Actuator Handle on this one.
   **   ~~~   ** Occurred for componentType='SYSTEM NODE SETPOINT', controlType='TEMPERATURE SETPOINT', uniqueKey='FULL BUILDING - 1 ZONE ZONE AIR NODE'.
   **   ~~~   ** The getActuatorHandle function will still return the handle (= 284) but caller should take note that there is a risk of overwritting.
   ** Warning ** Data Exchange API: You seem to already have tried to get an Actuator Handle on this one.
   **   ~~~   ** Occurred for componentType='SYSTEM NODE SETPOINT', controlType='TEMPERATURE SETPOINT', uniqueKey='FULL BUILDING - 1 ZONE ZONE AIR NODE'.
   **   ~~~   ** The getActuatorHandle function will still return the handle (= 284) but caller should take note that there is a risk of overwritting.
   ** Warning ** Data Exchange API: You seem to already have tried to get an Actuator Handle on this one.
   **   ~~~   ** Occurred for componentType='SYSTEM NODE SETPOINT', controlType='TEMPERATURE SETPOINT', uniqueKey='FULL BUILDING - 1 ZONE ZONE AIR NODE'.
   **   ~~~   ** The getActuatorHandle function will still return the handle (= 284) but caller should take note that there is a risk of overwritting.
   ** Warning ** Data Exchange API: You seem to already have tried to get an Actuator Handle on this one.
   **   ~~~   ** Occurred for componentType='SYSTEM NODE SETPOINT', controlType='TEMPERATURE SETPOINT', uniqueKey='FULL BUILDING - 1 ZONE ZONE AIR NODE'.
   **   ~~~   ** The getActuatorHandle function will still return the handle (= 284) but caller should take note that there is a risk of overwritting.
   ** Warning ** Data Exchange API: You seem to already have tried to get an Actuator Handle on this one.
   **   ~~~   ** Occurred for componentType='SYSTEM NODE SETPOINT', controlType='TEMPERATURE SETPOINT', uniqueKey='FULL BUILDING - 1 ZONE ZONE AIR NODE'.
   **   ~~~   ** The getActuatorHandle function will still return the handle (= 284) but caller should take note that there is a risk of overwritting.
   ** Warning ** Data Exchange API: You seem to already have tried to get an Actuator Handle on this one.
   **   ~~~   ** Occurred for componentType='SYSTEM NODE SETPOINT', controlType='TEMPERATURE SETPOINT', uniqueKey='FULL BUILDING - 1 ZONE ZONE AIR NODE'.
   **   ~~~   ** The getActuatorHandle function will still return the handle (= 284) but caller should take note that there is a risk of overwritting.
   ** Warning ** Data Exchange API: You seem to already have tried to get an Actuator Handle on this one.
   **   ~~~   ** Occurred for componentType='SYSTEM NODE SETPOINT', controlType='TEMPERATURE SETPOINT', uniqueKey='FULL BUILDING - 1 ZONE ZONE AIR NODE'.
   **   ~~~   ** The getActuatorHandle function will still return the handle (= 284) but caller should take note that there is a risk of overwritting.
   ** Warning ** Data Exchange API: You seem to already have tried to get an Actuator Handle on this one.
   **   ~~~   ** Occurred for componentType='SYSTEM NODE SETPOINT', controlType='TEMPERATURE SETPOINT', uniqueKey='FULL BUILDING - 1 ZONE ZONE AIR NODE'.
   **   ~~~   ** The getActuatorHandle function will still return the handle (= 284) but caller should take note that there is a risk of overwritting.
   ** Warning ** Data Exchange API: You seem to already have tried to get an Actuator Handle on this one.
   **   ~~~   ** Occurred for componentType='SYSTEM NODE SETPOINT', controlType='TEMPERATURE SETPOINT', uniqueKey='FULL BUILDING - 1 ZONE ZONE AIR NODE'.
   **   ~~~   ** The getActuatorHandle function will still return the handle (= 284) but caller should take note that there is a risk of overwritting.
   ** Warning ** Data Exchange API: You seem to already have tried to get an Actuator Handle on this one.
   **   ~~~   ** Occurred for componentType='SYSTEM NODE SETPOINT', controlType='TEMPERATURE SETPOINT', uniqueKey='FULL BUILDING - 1 ZONE ZONE AIR NODE'.
   **   ~~~   ** The getActuatorHandle function will still return the handle (= 284) but caller should take note that there is a risk of overwritting.
   ** Warning ** Data Exchange API: You seem to already have tried to get an Actuator Handle on this one.
   **   ~~~   ** Occurred for componentType='SYSTEM NODE SETPOINT', controlType='TEMPERATURE SETPOINT', uniqueKey='FULL BUILDING - 1 ZONE ZONE AIR NODE'.
   **   ~~~   ** The getActuatorHandle function will still return the handle (= 284) but caller should take note that there is a risk of overwritting.
   ** Warning ** Data Exchange API: You seem to already have tried to get an Actuator Handle on this one.
   **   ~~~   ** Occurred for componentType='SYSTEM NODE SETPOINT', controlType='TEMPERATURE SETPOINT', uniqueKey='FULL BUILDING - 1 ZONE ZONE AIR NODE'.
   **   ~~~   ** The getActuatorHandle function will still return the handle (= 284) but caller should take note that there is a risk of overwritting.
   ** Warning ** Data Exchange API: You seem to already have tried to get an Actuator Handle on this one.
   **   ~~~   ** Occurred for componentType='SYSTEM NODE SETPOINT', controlType='TEMPERATURE SETPOINT', uniqueKey='FULL BUILDING - 1 ZONE ZONE AIR NODE'.
   **   ~~~   ** The getActuatorHandle function will still return the handle (= 284) but caller should take note that there is a risk of overwritting.
   ** Warning ** Data Exchange API: You seem to already have tried to get an Actuator Handle on this one.
   **   ~~~   ** Occurred for componentType='SYSTEM NODE SETPOINT', controlType='TEMPERATURE SETPOINT', uniqueKey='FULL BUILDING - 1 ZONE ZONE AIR NODE'.
   **   ~~~   ** The getActuatorHandle function will still return the handle (= 284) but caller should take note that there is a risk of overwritting.
   ** Warning ** Data Exchange API: You seem to already have tried to get an Actuator Handle on this one.
   **   ~~~   ** Occurred for componentType='SYSTEM NODE SETPOINT', controlType='TEMPERATURE SETPOINT', uniqueKey='FULL BUILDING - 1 ZONE ZONE AIR NODE'.
   **   ~~~   ** The getActuatorHandle function will still return the handle (= 284) but caller should take note that there is a risk of overwritting.
   ** Warning ** Data Exchange API: You seem to already have tried to get an Actuator Handle on this one.
   **   ~~~   ** Occurred for componentType='SYSTEM NODE SETPOINT', controlType='TEMPERATURE SETPOINT', uniqueKey='FULL BUILDING - 1 ZONE ZONE AIR NODE'.
   **   ~~~   ** The getActuatorHandle function will still return the handle (= 284) but caller should take note that there is a risk of overwritting.
   ** Warning ** Data Exchange API: You seem to already have tried to get an Actuator Handle on this one.
   **   ~~~   ** Occurred for componentType='SYSTEM NODE SETPOINT', controlType='TEMPERATURE SETPOINT', uniqueKey='FULL BUILDING - 1 ZONE ZONE AIR NODE'.
   **   ~~~   ** The getActuatorHandle function will still return the handle (= 284) but caller should take note that there is a risk of overwritting.
   ** Warning ** Data Exchange API: You seem to already have tried to get an Actuator Handle on this one.
   **   ~~~   ** Occurred for componentType='SYSTEM NODE SETPOINT', controlType='TEMPERATURE SETPOINT', uniqueKey='FULL BUILDING - 1 ZONE ZONE AIR NODE'.
   **   ~~~   ** The getActuatorHandle function will still return the handle (= 284) but caller should take note that there is a risk of overwritting.
   ** Warning ** Data Exchange API: You seem to already have tried to get an Actuator Handle on this one.
   **   ~~~   ** Occurred for componentType='SYSTEM NODE SETPOINT', controlType='TEMPERATURE SETPOINT', uniqueKey='FULL BUILDING - 1 ZONE ZONE AIR NODE'.
   **   ~~~   ** The getActuatorHandle function will still return the handle (= 284) but caller should take note that there is a risk of overwritting.
   ** Warning ** Data Exchange API: You seem to already have tried to get an Actuator Handle on this one.
   **   ~~~   ** Occurred for componentType='SYSTEM NODE SETPOINT', controlType='TEMPERATURE SETPOINT', uniqueKey='FULL BUILDING - 1 ZONE ZONE AIR NODE'.
   **   ~~~   ** The getActuatorHandle function will still return the handle (= 284) but caller should take note that there is a risk of overwritting.
   ** Warning ** Data Exchange API: You seem to already have tried to get an Actuator Handle on this one.
   **   ~~~   ** Occurred for componentType='SYSTEM NODE SETPOINT', controlType='TEMPERATURE SETPOINT', uniqueKey='FULL BUILDING - 1 ZONE ZONE AIR NODE'.
   **   ~~~   ** The getActuatorHandle function will still return the handle (= 284) but caller should take note that there is a risk of overwritting.
   ** Warning ** Data Exchange API: You seem to already have tried to get an Actuator Handle on this one.
   **   ~~~   ** Occurred for componentType='SYSTEM NODE SETPOINT', controlType='TEMPERATURE SETPOINT', uniqueKey='FULL BUILDING - 1 ZONE ZONE AIR NODE'.
   **   ~~~   ** The getActuatorHandle function will still return the handle (= 284) but caller should take note that there is a risk of overwritting.
   ** Warning ** Data Exchange API: You seem to already have tried to get an Actuator Handle on this one.
   **   ~~~   ** Occurred for componentType='SYSTEM NODE SETPOINT', controlType='TEMPERATURE SETPOINT', uniqueKey='FULL BUILDING - 1 ZONE ZONE AIR NODE'.
   **   ~~~   ** The getActuatorHandle function will still return the handle (= 284) but caller should take note that there is a risk of overwritting.
   ** Warning ** Data Exchange API: You seem to already have tried to get an Actuator Handle on this one.
   **   ~~~   ** Occurred for componentType='SYSTEM NODE SETPOINT', controlType='TEMPERATURE SETPOINT', uniqueKey='FULL BUILDING - 1 ZONE ZONE AIR NODE'.
   **   ~~~   ** The getActuatorHandle function will still return the handle (= 284) but caller should take note that there is a risk of overwritting.
   ** Warning ** Data Exchange API: You seem to already have tried to get an Actuator Handle on this one.
   **   ~~~   ** Occurred for componentType='SYSTEM NODE SETPOINT', controlType='TEMPERATURE SETPOINT', uniqueKey='FULL BUILDING - 1 ZONE ZONE AIR NODE'.
   **   ~~~   ** The getActuatorHandle function will still return the handle (= 284) but caller should take note that there is a risk of overwritting.
   ** Warning ** Data Exchange API: You seem to already have tried to get an Actuator Handle on this one.
   **   ~~~   ** Occurred for componentType='SYSTEM NODE SETPOINT', controlType='TEMPERATURE SETPOINT', uniqueKey='FULL BUILDING - 1 ZONE ZONE AIR NODE'.
   **   ~~~   ** The getActuatorHandle function will still return the handle (= 284) but caller should take note that there is a risk of overwritting.
   ** Warning ** Data Exchange API: You seem to already have tried to get an Actuator Handle on this one.
   **   ~~~   ** Occurred for componentType='SYSTEM NODE SETPOINT', controlType='TEMPERATURE SETPOINT', uniqueKey='FULL BUILDING - 1 ZONE ZONE AIR NODE'.
   **   ~~~   ** The getActuatorHandle function will still return the handle (= 284) but caller should take note that there is a risk of overwritting.
   ** Warning ** Data Exchange API: You seem to already have tried to get an Actuator Handle on this one.
   **   ~~~   ** Occurred for componentType='SYSTEM NODE SETPOINT', controlType='TEMPERATURE SETPOINT', uniqueKey='FULL BUILDING - 1 ZONE ZONE AIR NODE'.
   **   ~~~   ** The getActuatorHandle function will still return the handle (= 284) but caller should take note that there is a risk of overwritting.
   ** Warning ** Data Exchange API: You seem to already have tried to get an Actuator Handle on this one.
   **   ~~~   ** Occurred for componentType='SYSTEM NODE SETPOINT', controlType='TEMPERATURE SETPOINT', uniqueKey='FULL BUILDING - 1 ZONE ZONE AIR NODE'.
   **   ~~~   ** The getActuatorHandle function will still return the handle (= 284) but caller should take note that there is a risk of overwritting.
   ** Warning ** Data Exchange API: You seem to already have tried to get an Actuator Handle on this one.
   **   ~~~   ** Occurred for componentType='SYSTEM NODE SETPOINT', controlType='TEMPERATURE SETPOINT', uniqueKey='FULL BUILDING - 1 ZONE ZONE AIR NODE'.
   **   ~~~   ** The getActuatorHandle function will still return the handle (= 284) but caller should take note that there is a risk of overwritting.
   ** Warning ** Data Exchange API: You seem to already have tried to get an Actuator Handle on this one.
   **   ~~~   ** Occurred for componentType='SYSTEM NODE SETPOINT', controlType='TEMPERATURE SETPOINT', uniqueKey='FULL BUILDING - 1 ZONE ZONE AIR NODE'.
   **   ~~~   ** The getActuatorHandle function will still return the handle (= 284) but caller should take note that there is a risk of overwritting.
   ** Warning ** Data Exchange API: You seem to already have tried to get an Actuator Handle on this one.
   **   ~~~   ** Occurred for componentType='SYSTEM NODE SETPOINT', controlType='TEMPERATURE SETPOINT', uniqueKey='FULL BUILDING - 1 ZONE ZONE AIR NODE'.
   **   ~~~   ** The getActuatorHandle function will still return the handle (= 284) but caller should take note that there is a risk of overwritting.
   ** Warning ** Data Exchange API: You seem to already have tried to get an Actuator Handle on this one.
   **   ~~~   ** Occurred for componentType='SYSTEM NODE SETPOINT', controlType='TEMPERATURE SETPOINT', uniqueKey='FULL BUILDING - 1 ZONE ZONE AIR NODE'.
   **   ~~~   ** The getActuatorHandle function will still return the handle (= 284) but caller should take note that there is a risk of overwritting.
   ** Warning ** Data Exchange API: You seem to already have tried to get an Actuator Handle on this one.
   **   ~~~   ** Occurred for componentType='SYSTEM NODE SETPOINT', controlType='TEMPERATURE SETPOINT', uniqueKey='FULL BUILDING - 1 ZONE ZONE AIR NODE'.
   **   ~~~   ** The getActuatorHandle function will still return the handle (= 284) but caller should take note that there is a risk of overwritting.
   ** Warning ** Data Exchange API: You seem to already have tried to get an Actuator Handle on this one.
   **   ~~~   ** Occurred for componentType='SYSTEM NODE SETPOINT', controlType='TEMPERATURE SETPOINT', uniqueKey='FULL BUILDING - 1 ZONE ZONE AIR NODE'.
   **   ~~~   ** The getActuatorHandle function will still return the handle (= 284) but caller should take note that there is a risk of overwritting.
   ** Warning ** Data Exchange API: You seem to already have tried to get an Actuator Handle on this one.
   **   ~~~   ** Occurred for componentType='SYSTEM NODE SETPOINT', controlType='TEMPERATURE SETPOINT', uniqueKey='FULL BUILDING - 1 ZONE ZONE AIR NODE'.
   **   ~~~   ** The getActuatorHandle function will still return the handle (= 284) but caller should take note that there is a risk of overwritting.
   ** Warning ** Data Exchange API: You seem to already have tried to get an Actuator Handle on this one.
   **   ~~~   ** Occurred for componentType='SYSTEM NODE SETPOINT', controlType='TEMPERATURE SETPOINT', uniqueKey='FULL BUILDING - 1 ZONE ZONE AIR NODE'.
   **   ~~~   ** The getActuatorHandle function will still return the handle (= 284) but caller should take note that there is a risk of overwritting.
   ** Warning ** Data Exchange API: You seem to already have tried to get an Actuator Handle on this one.
   **   ~~~   ** Occurred for componentType='SYSTEM NODE SETPOINT', controlType='TEMPERATURE SETPOINT', uniqueKey='FULL BUILDING - 1 ZONE ZONE AIR NODE'.
   **   ~~~   ** The getActuatorHandle function will still return the handle (= 284) but caller should take note that there is a risk of overwritting.
   ** Warning ** Data Exchange API: You seem to already have tried to get an Actuator Handle on this one.
   **   ~~~   ** Occurred for componentType='SYSTEM NODE SETPOINT', controlType='TEMPERATURE SETPOINT', uniqueKey='FULL BUILDING - 1 ZONE ZONE AIR NODE'.
   **   ~~~   ** The getActuatorHandle function will still return the handle (= 284) but caller should take note that there is a risk of overwritting.
   ** Warning ** Data Exchange API: You seem to already have tried to get an Actuator Handle on this one.
   **   ~~~   ** Occurred for componentType='SYSTEM NODE SETPOINT', controlType='TEMPERATURE SETPOINT', uniqueKey='FULL BUILDING - 1 ZONE ZONE AIR NODE'.
   **   ~~~   ** The getActuatorHandle function will still return the handle (= 284) but caller should take note that there is a risk of overwritting.
   ** Warning ** Data Exchange API: You seem to already have tried to get an Actuator Handle on this one.
   **   ~~~   ** Occurred for componentType='SYSTEM NODE SETPOINT', controlType='TEMPERATURE SETPOINT', uniqueKey='FULL BUILDING - 1 ZONE ZONE AIR NODE'.
   **   ~~~   ** The getActuatorHandle function will still return the handle (= 284) but caller should take note that there is a risk of overwritting.
   ** Warning ** Data Exchange API: You seem to already have tried to get an Actuator Handle on this one.
   **   ~~~   ** Occurred for componentType='SYSTEM NODE SETPOINT', controlType='TEMPERATURE SETPOINT', uniqueKey='FULL BUILDING - 1 ZONE ZONE AIR NODE'.
   **   ~~~   ** The getActuatorHandle function will still return the handle (= 284) but caller should take note that there is a risk of overwritting.
   ** Warning ** Data Exchange API: You seem to already have tried to get an Actuator Handle on this one.
   **   ~~~   ** Occurred for componentType='SYSTEM NODE SETPOINT', controlType='TEMPERATURE SETPOINT', uniqueKey='FULL BUILDING - 1 ZONE ZONE AIR NODE'.
   **   ~~~   ** The getActuatorHandle function will still return the handle (= 284) but caller should take note that there is a risk of overwritting.
   ** Warning ** Data Exchange API: You seem to already have tried to get an Actuator Handle on this one.
   **   ~~~   ** Occurred for componentType='SYSTEM NODE SETPOINT', controlType='TEMPERATURE SETPOINT', uniqueKey='FULL BUILDING - 1 ZONE ZONE AIR NODE'.
   **   ~~~   ** The getActuatorHandle function will still return the handle (= 284) but caller should take note that there is a risk of overwritting.
   ** Warning ** Data Exchange API: You seem to already have tried to get an Actuator Handle on this one.
   **   ~~~   ** Occurred for componentType='SYSTEM NODE SETPOINT', controlType='TEMPERATURE SETPOINT', uniqueKey='FULL BUILDING - 1 ZONE ZONE AIR NODE'.
   **   ~~~   ** The getActuatorHandle function will still return the handle (= 284) but caller should take note that there is a risk of overwritting.
   ** Warning ** Data Exchange API: You seem to already have tried to get an Actuator Handle on this one.
   **   ~~~   ** Occurred for componentType='SYSTEM NODE SETPOINT', controlType='TEMPERATURE SETPOINT', uniqueKey='FULL BUILDING - 1 ZONE ZONE AIR NODE'.
   **   ~~~   ** The getActuatorHandle function will still return the handle (= 284) but caller should take note that there is a risk of overwritting.
   ** Warning ** Data Exchange API: You seem to already have tried to get an Actuator Handle on this one.
   **   ~~~   ** Occurred for componentType='SYSTEM NODE SETPOINT', controlType='TEMPERATURE SETPOINT', uniqueKey='FULL BUILDING - 1 ZONE ZONE AIR NODE'.
   **   ~~~   ** The getActuatorHandle function will still return the handle (= 284) but caller should take note that there is a risk of overwritting.
   ** Warning ** Data Exchange API: You seem to already have tried to get an Actuator Handle on this one.
   **   ~~~   ** Occurred for componentType='SYSTEM NODE SETPOINT', controlType='TEMPERATURE SETPOINT', uniqueKey='FULL BUILDING - 1 ZONE ZONE AIR NODE'.
   **   ~~~   ** The getActuatorHandle function will still return the handle (= 284) but caller should take note that there is a risk of overwritting.
   ** Warning ** Data Exchange API: You seem to already have tried to get an Actuator Handle on this one.
   **   ~~~   ** Occurred for componentType='SYSTEM NODE SETPOINT', controlType='TEMPERATURE SETPOINT', uniqueKey='FULL BUILDING - 1 ZONE ZONE AIR NODE'.
   **   ~~~   ** The getActuatorHandle function will still return the handle (= 284) but caller should take note that there is a risk of overwritting.
   ** Warning ** Data Exchange API: You seem to already have tried to get an Actuator Handle on this one.
   **   ~~~   ** Occurred for componentType='SYSTEM NODE SETPOINT', controlType='TEMPERATURE SETPOINT', uniqueKey='FULL BUILDING - 1 ZONE ZONE AIR NODE'.
   **   ~~~   ** The getActuatorHandle function will still return the handle (= 284) but caller should take note that there is a risk of overwritting.
   ** Warning ** Data Exchange API: You seem to already have tried to get an Actuator Handle on this one.
   **   ~~~   ** Occurred for componentType='SYSTEM NODE SETPOINT', controlType='TEMPERATURE SETPOINT', uniqueKey='FULL BUILDING - 1 ZONE ZONE AIR NODE'.
   **   ~~~   ** The getActuatorHandle function will still return the handle (= 284) but caller should take note that there is a risk of overwritting.
   ** Warning ** Data Exchange API: You seem to already have tried to get an Actuator Handle on this one.
   **   ~~~   ** Occurred for componentType='SYSTEM NODE SETPOINT', controlType='TEMPERATURE SETPOINT', uniqueKey='FULL BUILDING - 1 ZONE ZONE AIR NODE'.
   **   ~~~   ** The getActuatorHandle function will still return the handle (= 284) but caller should take note that there is a risk of overwritting.
   ** Warning ** Data Exchange API: You seem to already have tried to get an Actuator Handle on this one.
   **   ~~~   ** Occurred for componentType='SYSTEM NODE SETPOINT', controlType='TEMPERATURE SETPOINT', uniqueKey='FULL BUILDING - 1 ZONE ZONE AIR NODE'.
   **   ~~~   ** The getActuatorHandle function will still return the handle (= 284) but caller should take note that there is a risk of overwritting.
   ** Warning ** Data Exchange API: You seem to already have tried to get an Actuator Handle on this one.
   **   ~~~   ** Occurred for componentType='SYSTEM NODE SETPOINT', controlType='TEMPERATURE SETPOINT', uniqueKey='FULL BUILDING - 1 ZONE ZONE AIR NODE'.
   **   ~~~   ** The getActuatorHandle function will still return the handle (= 284) but caller should take note that there is a risk of overwritting.
   ** Warning ** Data Exchange API: You seem to already have tried to get an Actuator Handle on this one.
   **   ~~~   ** Occurred for componentType='SYSTEM NODE SETPOINT', controlType='TEMPERATURE SETPOINT', uniqueKey='FULL BUILDING - 1 ZONE ZONE AIR NODE'.
   **   ~~~   ** The getActuatorHandle function will still return the handle (= 284) but caller should take note that there is a risk of overwritting.
   ** Warning ** Data Exchange API: You seem to already have tried to get an Actuator Handle on this one.
   **   ~~~   ** Occurred for componentType='SYSTEM NODE SETPOINT', controlType='TEMPERATURE SETPOINT', uniqueKey='FULL BUILDING - 1 ZONE ZONE AIR NODE'.
   **   ~~~   ** The getActuatorHandle function will still return the handle (= 284) but caller should take note that there is a risk of overwritting.
   ** Warning ** Data Exchange API: You seem to already have tried to get an Actuator Handle on this one.
   **   ~~~   ** Occurred for componentType='SYSTEM NODE SETPOINT', controlType='TEMPERATURE SETPOINT', uniqueKey='FULL BUILDING - 1 ZONE ZONE AIR NODE'.
   **   ~~~   ** The getActuatorHandle function will still return the handle (= 284) but caller should take note that there is a risk of overwritting.
   ** Warning ** Data Exchange API: You seem to already have tried to get an Actuator Handle on this one.
   **   ~~~   ** Occurred for componentType='SYSTEM NODE SETPOINT', controlType='TEMPERATURE SETPOINT', uniqueKey='FULL BUILDING - 1 ZONE ZONE AIR NODE'.
   **   ~~~   ** The getActuatorHandle function will still return the handle (= 284) but caller should take note that there is a risk of overwritting.
   ** Warning ** Data Exchange API: You seem to already have tried to get an Actuator Handle on this one.
   **   ~~~   ** Occurred for componentType='SYSTEM NODE SETPOINT', controlType='TEMPERATURE SETPOINT', uniqueKey='FULL BUILDING - 1 ZONE ZONE AIR NODE'.
   **   ~~~   ** The getActuatorHandle function will still return the handle (= 284) but caller should take note that there is a risk of overwritting.
   ** Warning ** Data Exchange API: You seem to already have tried to get an Actuator Handle on this one.
   **   ~~~   ** Occurred for componentType='SYSTEM NODE SETPOINT', controlType='TEMPERATURE SETPOINT', uniqueKey='FULL BUILDING - 1 ZONE ZONE AIR NODE'.
   **   ~~~   ** The getActuatorHandle function will still return the handle (= 284) but caller should take note that there is a risk of overwritting.
   ** Warning ** Data Exchange API: You seem to already have tried to get an Actuator Handle on this one.
   **   ~~~   ** Occurred for componentType='SYSTEM NODE SETPOINT', controlType='TEMPERATURE SETPOINT', uniqueKey='FULL BUILDING - 1 ZONE ZONE AIR NODE'.
   **   ~~~   ** The getActuatorHandle function will still return the handle (= 284) but caller should take note that there is a risk of overwritting.
   ** Warning ** Data Exchange API: You seem to already have tried to get an Actuator Handle on this one.
   **   ~~~   ** Occurred for componentType='SYSTEM NODE SETPOINT', controlType='TEMPERATURE SETPOINT', uniqueKey='FULL BUILDING - 1 ZONE ZONE AIR NODE'.
   **   ~~~   ** The getActuatorHandle function will still return the handle (= 284) but caller should take note that there is a risk of overwritting.
   ** Warning ** Data Exchange API: You seem to already have tried to get an Actuator Handle on this one.
   **   ~~~   ** Occurred for componentType='SYSTEM NODE SETPOINT', controlType='TEMPERATURE SETPOINT', uniqueKey='FULL BUILDING - 1 ZONE ZONE AIR NODE'.
   **   ~~~   ** The getActuatorHandle function will still return the handle (= 284) but caller should take note that there is a risk of overwritting.
   ** Warning ** Data Exchange API: You seem to already have tried to get an Actuator Handle on this one.
   **   ~~~   ** Occurred for componentType='SYSTEM NODE SETPOINT', controlType='TEMPERATURE SETPOINT', uniqueKey='FULL BUILDING - 1 ZONE ZONE AIR NODE'.
   **   ~~~   ** The getActuatorHandle function will still return the handle (= 284) but caller should take note that there is a risk of overwritting.
   ** Warning ** Data Exchange API: You seem to already have tried to get an Actuator Handle on this one.
   **   ~~~   ** Occurred for componentType='SYSTEM NODE SETPOINT', controlType='TEMPERATURE SETPOINT', uniqueKey='FULL BUILDING - 1 ZONE ZONE AIR NODE'.
   **   ~~~   ** The getActuatorHandle function will still return the handle (= 284) but caller should take note that there is a risk of overwritting.
   ** Warning ** Data Exchange API: You seem to already have tried to get an Actuator Handle on this one.
   **   ~~~   ** Occurred for componentType='SYSTEM NODE SETPOINT', controlType='TEMPERATURE SETPOINT', uniqueKey='FULL BUILDING - 1 ZONE ZONE AIR NODE'.
   **   ~~~   ** The getActuatorHandle function will still return the handle (= 284) but caller should take note that there is a risk of overwritting.
   ** Warning ** Data Exchange API: You seem to already have tried to get an Actuator Handle on this one.
   **   ~~~   ** Occurred for componentType='SYSTEM NODE SETPOINT', controlType='TEMPERATURE SETPOINT', uniqueKey='FULL BUILDING - 1 ZONE ZONE AIR NODE'.
   **   ~~~   ** The getActuatorHandle function will still return the handle (= 284) but caller should take note that there is a risk of overwritting.
   ** Warning ** Data Exchange API: You seem to already have tried to get an Actuator Handle on this one.
   **   ~~~   ** Occurred for componentType='SYSTEM NODE SETPOINT', controlType='TEMPERATURE SETPOINT', uniqueKey='FULL BUILDING - 1 ZONE ZONE AIR NODE'.
   **   ~~~   ** The getActuatorHandle function will still return the handle (= 284) but caller should take note that there is a risk of overwritting.
   ** Warning ** Data Exchange API: You seem to already have tried to get an Actuator Handle on this one.
   **   ~~~   ** Occurred for componentType='SYSTEM NODE SETPOINT', controlType='TEMPERATURE SETPOINT', uniqueKey='FULL BUILDING - 1 ZONE ZONE AIR NODE'.
   **   ~~~   ** The getActuatorHandle function will still return the handle (= 284) but caller should take note that there is a risk of overwritting.
   ** Warning ** Data Exchange API: You seem to already have tried to get an Actuator Handle on this one.
   **   ~~~   ** Occurred for componentType='SYSTEM NODE SETPOINT', controlType='TEMPERATURE SETPOINT', uniqueKey='FULL BUILDING - 1 ZONE ZONE AIR NODE'.
   **   ~~~   ** The getActuatorHandle function will still return the handle (= 284) but caller should take note that there is a risk of overwritting.
   ** Warning ** Data Exchange API: You seem to already have tried to get an Actuator Handle on this one.
   **   ~~~   ** Occurred for componentType='SYSTEM NODE SETPOINT', controlType='TEMPERATURE SETPOINT', uniqueKey='FULL BUILDING - 1 ZONE ZONE AIR NODE'.
   **   ~~~   ** The getActuatorHandle function will still return the handle (= 284) but caller should take note that there is a risk of overwritting.
   ** Warning ** Data Exchange API: You seem to already have tried to get an Actuator Handle on this one.
   **   ~~~   ** Occurred for componentType='SYSTEM NODE SETPOINT', controlType='TEMPERATURE SETPOINT', uniqueKey='FULL BUILDING - 1 ZONE ZONE AIR NODE'.
   **   ~~~   ** The getActuatorHandle function will still return the handle (= 284) but caller should take note that there is a risk of overwritting.
   ** Warning ** Data Exchange API: You seem to already have tried to get an Actuator Handle on this one.
   **   ~~~   ** Occurred for componentType='SYSTEM NODE SETPOINT', controlType='TEMPERATURE SETPOINT', uniqueKey='FULL BUILDING - 1 ZONE ZONE AIR NODE'.
   **   ~~~   ** The getActuatorHandle function will still return the handle (= 284) but caller should take note that there is a risk of overwritting.
   ** Warning ** Data Exchange API: You seem to already have tried to get an Actuator Handle on this one.
   **   ~~~   ** Occurred for componentType='SYSTEM NODE SETPOINT', controlType='TEMPERATURE SETPOINT', uniqueKey='FULL BUILDING - 1 ZONE ZONE AIR NODE'.
   **   ~~~   ** The getActuatorHandle function will still return the handle (= 284) but caller should take note that there is a risk of overwritting.
   ** Warning ** Data Exchange API: You seem to already have tried to get an Actuator Handle on this one.
   **   ~~~   ** Occurred for componentType='SYSTEM NODE SETPOINT', controlType='TEMPERATURE SETPOINT', uniqueKey='FULL BUILDING - 1 ZONE ZONE AIR NODE'.
   **   ~~~   ** The getActuatorHandle function will still return the handle (= 284) but caller should take note that there is a risk of overwritting.
   ** Warning ** Data Exchange API: You seem to already have tried to get an Actuator Handle on this one.
   **   ~~~   ** Occurred for componentType='SYSTEM NODE SETPOINT', controlType='TEMPERATURE SETPOINT', uniqueKey='FULL BUILDING - 1 ZONE ZONE AIR NODE'.
   **   ~~~   ** The getActuatorHandle function will still return the handle (= 284) but caller should take note that there is a risk of overwritting.
   ** Warning ** Data Exchange API: You seem to already have tried to get an Actuator Handle on this one.
   **   ~~~   ** Occurred for componentType='SYSTEM NODE SETPOINT', controlType='TEMPERATURE SETPOINT', uniqueKey='FULL BUILDING - 1 ZONE ZONE AIR NODE'.
   **   ~~~   ** The getActuatorHandle function will still return the handle (= 284) but caller should take note that there is a risk of overwritting.
   ** Warning ** Data Exchange API: You seem to already have tried to get an Actuator Handle on this one.
   **   ~~~   ** Occurred for componentType='SYSTEM NODE SETPOINT', controlType='TEMPERATURE SETPOINT', uniqueKey='FULL BUILDING - 1 ZONE ZONE AIR NODE'.
   **   ~~~   ** The getActuatorHandle function will still return the handle (= 284) but caller should take note that there is a risk of overwritting.
   ** Warning ** Data Exchange API: You seem to already have tried to get an Actuator Handle on this one.
   **   ~~~   ** Occurred for componentType='SYSTEM NODE SETPOINT', controlType='TEMPERATURE SETPOINT', uniqueKey='FULL BUILDING - 1 ZONE ZONE AIR NODE'.
   **   ~~~   ** The getActuatorHandle function will still return the handle (= 284) but caller should take note that there is a risk of overwritting.
   ** Warning ** Data Exchange API: You seem to already have tried to get an Actuator Handle on this one.
   **   ~~~   ** Occurred for componentType='SYSTEM NODE SETPOINT', controlType='TEMPERATURE SETPOINT', uniqueKey='FULL BUILDING - 1 ZONE ZONE AIR NODE'.
   **   ~~~   ** The getActuatorHandle function will still return the handle (= 284) but caller should take note that there is a risk of overwritting.
   ** Warning ** Data Exchange API: You seem to already have tried to get an Actuator Handle on this one.
   **   ~~~   ** Occurred for componentType='SYSTEM NODE SETPOINT', controlType='TEMPERATURE SETPOINT', uniqueKey='FULL BUILDING - 1 ZONE ZONE AIR NODE'.
   **   ~~~   ** The getActuatorHandle function will still return the handle (= 284) but caller should take note that there is a risk of overwritting.
   ** Warning ** Data Exchange API: You seem to already have tried to get an Actuator Handle on this one.
   **   ~~~   ** Occurred for componentType='SYSTEM NODE SETPOINT', controlType='TEMPERATURE SETPOINT', uniqueKey='FULL BUILDING - 1 ZONE ZONE AIR NODE'.
   **   ~~~   ** The getActuatorHandle function will still return the handle (= 284) but caller should take note that there is a risk of overwritting.
   ** Warning ** Data Exchange API: You seem to already have tried to get an Actuator Handle on this one.
   **   ~~~   ** Occurred for componentType='SYSTEM NODE SETPOINT', controlType='TEMPERATURE SETPOINT', uniqueKey='FULL BUILDING - 1 ZONE ZONE AIR NODE'.
   **   ~~~   ** The getActuatorHandle function will still return the handle (= 284) but caller should take note that there is a risk of overwritting.
   ** Warning ** Data Exchange API: You seem to already have tried to get an Actuator Handle on this one.
   **   ~~~   ** Occurred for componentType='SYSTEM NODE SETPOINT', controlType='TEMPERATURE SETPOINT', uniqueKey='FULL BUILDING - 1 ZONE ZONE AIR NODE'.
   **   ~~~   ** The getActuatorHandle function will still return the handle (= 284) but caller should take note that there is a risk of overwritting.
   ** Warning ** Data Exchange API: You seem to already have tried to get an Actuator Handle on this one.
   **   ~~~   ** Occurred for componentType='SYSTEM NODE SETPOINT', controlType='TEMPERATURE SETPOINT', uniqueKey='FULL BUILDING - 1 ZONE ZONE AIR NODE'.
   **   ~~~   ** The getActuatorHandle function will still return the handle (= 284) but caller should take note that there is a risk of overwritting.
   ** Warning ** Data Exchange API: You seem to already have tried to get an Actuator Handle on this one.
   **   ~~~   ** Occurred for componentType='SYSTEM NODE SETPOINT', controlType='TEMPERATURE SETPOINT', uniqueKey='FULL BUILDING - 1 ZONE ZONE AIR NODE'.
   **   ~~~   ** The getActuatorHandle function will still return the handle (= 284) but caller should take note that there is a risk of overwritting.
   ** Warning ** Data Exchange API: You seem to already have tried to get an Actuator Handle on this one.
   **   ~~~   ** Occurred for componentType='SYSTEM NODE SETPOINT', controlType='TEMPERATURE SETPOINT', uniqueKey='FULL BUILDING - 1 ZONE ZONE AIR NODE'.
   **   ~~~   ** The getActuatorHandle function will still return the handle (= 284) but caller should take note that there is a risk of overwritting.
   ** Warning ** Data Exchange API: You seem to already have tried to get an Actuator Handle on this one.
   **   ~~~   ** Occurred for componentType='SYSTEM NODE SETPOINT', controlType='TEMPERATURE SETPOINT', uniqueKey='FULL BUILDING - 1 ZONE ZONE AIR NODE'.
   **   ~~~   ** The getActuatorHandle function will still return the handle (= 284) but caller should take note that there is a risk of overwritting.
   ** Warning ** Data Exchange API: You seem to already have tried to get an Actuator Handle on this one.
   **   ~~~   ** Occurred for componentType='SYSTEM NODE SETPOINT', controlType='TEMPERATURE SETPOINT', uniqueKey='FULL BUILDING - 1 ZONE ZONE AIR NODE'.
   **   ~~~   ** The getActuatorHandle function will still return the handle (= 284) but caller should take note that there is a risk of overwritting.
   ** Warning ** Data Exchange API: You seem to already have tried to get an Actuator Handle on this one.
   **   ~~~   ** Occurred for componentType='SYSTEM NODE SETPOINT', controlType='TEMPERATURE SETPOINT', uniqueKey='FULL BUILDING - 1 ZONE ZONE AIR NODE'.
   **   ~~~   ** The getActuatorHandle function will still return the handle (= 284) but caller should take note that there is a risk of overwritting.
   ** Warning ** Data Exchange API: You seem to already have tried to get an Actuator Handle on this one.
   **   ~~~   ** Occurred for componentType='SYSTEM NODE SETPOINT', controlType='TEMPERATURE SETPOINT', uniqueKey='FULL BUILDING - 1 ZONE ZONE AIR NODE'.
   **   ~~~   ** The getActuatorHandle function will still return the handle (= 284) but caller should take note that there is a risk of overwritting.
   ** Warning ** Data Exchange API: You seem to already have tried to get an Actuator Handle on this one.
   **   ~~~   ** Occurred for componentType='SYSTEM NODE SETPOINT', controlType='TEMPERATURE SETPOINT', uniqueKey='FULL BUILDING - 1 ZONE ZONE AIR NODE'.
   **   ~~~   ** The getActuatorHandle function will still return the handle (= 284) but caller should take note that there is a risk of overwritting.
   ** Warning ** Data Exchange API: You seem to already have tried to get an Actuator Handle on this one.
   **   ~~~   ** Occurred for componentType='SYSTEM NODE SETPOINT', controlType='TEMPERATURE SETPOINT', uniqueKey='FULL BUILDING - 1 ZONE ZONE AIR NODE'.
   **   ~~~   ** The getActuatorHandle function will still return the handle (= 284) but caller should take note that there is a risk of overwritting.
   ** Warning ** Data Exchange API: You seem to already have tried to get an Actuator Handle on this one.
   **   ~~~   ** Occurred for componentType='SYSTEM NODE SETPOINT', controlType='TEMPERATURE SETPOINT', uniqueKey='FULL BUILDING - 1 ZONE ZONE AIR NODE'.
   **   ~~~   ** The getActuatorHandle function will still return the handle (= 284) but caller should take note that there is a risk of overwritting.
   ** Warning ** Data Exchange API: You seem to already have tried to get an Actuator Handle on this one.
   **   ~~~   ** Occurred for componentType='SYSTEM NODE SETPOINT', controlType='TEMPERATURE SETPOINT', uniqueKey='FULL BUILDING - 1 ZONE ZONE AIR NODE'.
   **   ~~~   ** The getActuatorHandle function will still return the handle (= 284) but caller should take note that there is a risk of overwritting.
   ** Warning ** Data Exchange API: You seem to already have tried to get an Actuator Handle on this one.
   **   ~~~   ** Occurred for componentType='SYSTEM NODE SETPOINT', controlType='TEMPERATURE SETPOINT', uniqueKey='FULL BUILDING - 1 ZONE ZONE AIR NODE'.
   **   ~~~   ** The getActuatorHandle function will still return the handle (= 284) but caller should take note that there is a risk of overwritting.
   ** Warning ** Data Exchange API: You seem to already have tried to get an Actuator Handle on this one.
   **   ~~~   ** Occurred for componentType='SYSTEM NODE SETPOINT', controlType='TEMPERATURE SETPOINT', uniqueKey='FULL BUILDING - 1 ZONE ZONE AIR NODE'.
   **   ~~~   ** The getActuatorHandle function will still return the handle (= 284) but caller should take note that there is a risk of overwritting.
   ** Warning ** Data Exchange API: You seem to already have tried to get an Actuator Handle on this one.
[...]
   ** Warning ** Data Exchange API: You seem to already have tried to get an Actuator Handle on this one.
   **   ~~~   ** Occurred for componentType='SYSTEM NODE SETPOINT', controlType='TEMPERATURE SETPOINT', uniqueKey='FULL BUILDING - 1 ZONE ZONE AIR NODE'.
   **   ~~~   ** The getActuatorHandle function will still return the handle (= 284) but caller should take note that there is a risk of overwritting.
   ** Warning ** Data Exchange API: You seem to already have tried to get an Actuator Handle on this one.
   **   ~~~   ** Occurred for componentType='SYSTEM NODE SETPOINT', controlType='TEMPERATURE SETPOINT', uniqueKey='FULL BUILDING - 1 ZONE ZONE AIR NODE'.
   **   ~~~   ** The getActuatorHandle function will still return the handle (= 284) but caller should take note that there is a risk of overwritting.
   ** Warning ** Data Exchange API: You seem to already have tried to get an Actuator Handle on this one.
   **   ~~~   ** Occurred for componentType='SYSTEM NODE SETPOINT', controlType='TEMPERATURE SETPOINT', uniqueKey='FULL BUILDING - 1 ZONE ZONE AIR NODE'.
   **   ~~~   ** The getActuatorHandle function will still return the handle (= 284) but caller should take note that there is a risk of overwritting.
   ** Warning ** Data Exchange API: You seem to already have tried to get an Actuator Handle on this one.
   **   ~~~   ** Occurred for componentType='SYSTEM NODE SETPOINT', controlType='TEMPERATURE SETPOINT', uniqueKey='FULL BUILDING - 1 ZONE ZONE AIR NODE'.
   **   ~~~   ** The getActuatorHandle function will still return the handle (= 284) but caller should take note that there is a risk of overwritting.
   ** Warning ** Data Exchange API: You seem to already have tried to get an Actuator Handle on this one.
   **   ~~~   ** Occurred for componentType='SYSTEM NODE SETPOINT', controlType='TEMPERATURE SETPOINT', uniqueKey='FULL BUILDING - 1 ZONE ZONE AIR NODE'.
   **   ~~~   ** The getActuatorHandle function will still return the handle (= 284) but caller should take note that there is a risk of overwritting.
   ** Warning ** Data Exchange API: You seem to already have tried to get an Actuator Handle on this one.
   **   ~~~   ** Occurred for componentType='SYSTEM NODE SETPOINT', controlType='TEMPERATURE SETPOINT', uniqueKey='FULL BUILDING - 1 ZONE ZONE AIR NODE'.
   **   ~~~   ** The getActuatorHandle function will still return the handle (= 284) but caller should take note that there is a risk of overwritting.
   ** Warning ** Data Exchange API: You seem to already have tried to get an Actuator Handle on this one.
   **   ~~~   ** Occurred for componentType='SYSTEM NODE SETPOINT', controlType='TEMPERATURE SETPOINT', uniqueKey='FULL BUILDING - 1 ZONE ZONE AIR NODE'.
   **   ~~~   ** The getActuatorHandle function will still return the handle (= 284) but caller should take note that there is a risk of overwritting.
   ** Warning ** Data Exchange API: You seem to already have tried to get an Actuator Handle on this one.
   **   ~~~   ** Occurred for componentType='SYSTEM NODE SETPOINT', controlType='TEMPERATURE SETPOINT', uniqueKey='FULL BUILDING - 1 ZONE ZONE AIR NODE'.
   **   ~~~   ** The getActuatorHandle function will still return the handle (= 284) but caller should take note that there is a risk of overwritting.
   ** Warning ** Data Exchange API: You seem to already have tried to get an Actuator Handle on this one.
   **   ~~~   ** Occurred for componentType='SYSTEM NODE SETPOINT', controlType='TEMPERATURE SETPOINT', uniqueKey='FULL BUILDING - 1 ZONE ZONE AIR NODE'.
   **   ~~~   ** The getActuatorHandle function will still return the handle (= 284) but caller should take note that there is a risk of overwritting.
   ** Warning ** Data Exchange API: You seem to already have tried to get an Actuator Handle on this one.
   **   ~~~   ** Occurred for componentType='SYSTEM NODE SETPOINT', controlType='TEMPERATURE SETPOINT', uniqueKey='FULL BUILDING - 1 ZONE ZONE AIR NODE'.
   **   ~~~   ** The getActuatorHandle function will still return the handle (= 284) but caller should take note that there is a risk of overwritting.
   ** Warning ** Data Exchange API: You seem to already have tried to get an Actuator Handle on this one.
   **   ~~~   ** Occurred for componentType='SYSTEM NODE SETPOINT', controlType='TEMPERATURE SETPOINT', uniqueKey='FULL BUILDING - 1 ZONE ZONE AIR NODE'.
   **   ~~~   ** The getActuatorHandle function will still return the handle (= 284) but caller should take note that there is a risk of overwritting.
   ** Warning ** Data Exchange API: You seem to already have tried to get an Actuator Handle on this one.
   **   ~~~   ** Occurred for componentType='SYSTEM NODE SETPOINT', controlType='TEMPERATURE SETPOINT', uniqueKey='FULL BUILDING - 1 ZONE ZONE AIR NODE'.
   **   ~~~   ** The getActuatorHandle function will still return the handle (= 284) but caller should take note that there is a risk of overwritting.
   ** Warning ** Data Exchange API: You seem to already have tried to get an Actuator Handle on this one.
   **   ~~~   ** Occurred for componentType='SYSTEM NODE SETPOINT', controlType='TEMPERATURE SETPOINT', uniqueKey='FULL BUILDING - 1 ZONE ZONE AIR NODE'.
   **   ~~~   ** The getActuatorHandle function will still return the handle (= 284) but caller should take note that there is a risk of overwritting.
   ** Warning ** Data Exchange API: You seem to already have tried to get an Actuator Handle on this one.
   **   ~~~   ** Occurred for componentType='SYSTEM NODE SETPOINT', controlType='TEMPERATURE SETPOINT', uniqueKey='FULL BUILDING - 1 ZONE ZONE AIR NODE'.
   **   ~~~   ** The getActuatorHandle function will still return the handle (= 284) but caller should take note that there is a risk of overwritting.
   ** Warning ** Data Exchange API: You seem to already have tried to get an Actuator Handle on this one.
   **   ~~~   ** Occurred for componentType='SYSTEM NODE SETPOINT', controlType='TEMPERATURE SETPOINT', uniqueKey='FULL BUILDING - 1 ZONE ZONE AIR NODE'.
   **   ~~~   ** The getActuatorHandle function will still return the handle (= 284) but caller should take note that there is a risk of overwritting.
   ** Warning ** Data Exchange API: You seem to already have tried to get an Actuator Handle on this one.
   **   ~~~   ** Occurred for componentType='SYSTEM NODE SETPOINT', controlType='TEMPERATURE SETPOINT', uniqueKey='FULL BUILDING - 1 ZONE ZONE AIR NODE'.
   **   ~~~   ** The getActuatorHandle function will still return the handle (= 284) but caller should take note that there is a risk of overwritting.
   ** Warning ** Data Exchange API: You seem to already have tried to get an Actuator Handle on this one.
   **   ~~~   ** Occurred for componentType='SYSTEM NODE SETPOINT', controlType='TEMPERATURE SETPOINT', uniqueKey='FULL BUILDING - 1 ZONE ZONE AIR NODE'.
   **   ~~~   ** The getActuatorHandle function will still return the handle (= 284) but caller should take note that there is a risk of overwritting.
   ** Warning ** Data Exchange API: You seem to already have tried to get an Actuator Handle on this one.
   **   ~~~   ** Occurred for componentType='SYSTEM NODE SETPOINT', controlType='TEMPERATURE SETPOINT', uniqueKey='FULL BUILDING - 1 ZONE ZONE AIR NODE'.
   **   ~~~   ** The getActuatorHandle function will still return the handle (= 284) but caller should take note that there is a risk of overwritting.
   ** Warning ** Data Exchange API: You seem to already have tried to get an Actuator Handle on this one.
   **   ~~~   ** Occurred for componentType='SYSTEM NODE SETPOINT', controlType='TEMPERATURE SETPOINT', uniqueKey='FULL BUILDING - 1 ZONE ZONE AIR NODE'.
   **   ~~~   ** The getActuatorHandle function will still return the handle (= 284) but caller should take note that there is a risk of overwritting.
   ** Warning ** Data Exchange API: You seem to already have tried to get an Actuator Handle on this one.
   **   ~~~   ** Occurred for componentType='SYSTEM NODE SETPOINT', controlType='TEMPERATURE SETPOINT', uniqueKey='FULL BUILDING - 1 ZONE ZONE AIR NODE'.
   **   ~~~   ** The getActuatorHandle function will still return the handle (= 284) but caller should take note that there is a risk of overwritting.
   ** Warning ** Data Exchange API: You seem to already have tried to get an Actuator Handle on this one.
   **   ~~~   ** Occurred for componentType='SYSTEM NODE SETPOINT', controlType='TEMPERATURE SETPOINT', uniqueKey='FULL BUILDING - 1 ZONE ZONE AIR NODE'.
   **   ~~~   ** The getActuatorHandle function will still return the handle (= 284) but caller should take note that there is a risk of overwritting.
   ** Warning ** Data Exchange API: You seem to already have tried to get an Actuator Handle on this one.
   **   ~~~   ** Occurred for componentType='SYSTEM NODE SETPOINT', controlType='TEMPERATURE SETPOINT', uniqueKey='FULL BUILDING - 1 ZONE ZONE AIR NODE'.
   **   ~~~   ** The getActuatorHandle function will still return the handle (= 284) but caller should take note that there is a risk of overwritting.
   ** Warning ** Data Exchange API: You seem to already have tried to get an Actuator Handle on this one.
   **   ~~~   ** Occurred for componentType='SYSTEM NODE SETPOINT', controlType='TEMPERATURE SETPOINT', uniqueKey='FULL BUILDING - 1 ZONE ZONE AIR NODE'.
   **   ~~~   ** The getActuatorHandle function will still return the handle (= 284) but caller should take note that there is a risk of overwritting.
   ** Warning ** Data Exchange API: You seem to already have tried to get an Actuator Handle on this one.
   **   ~~~   ** Occurred for componentType='SYSTEM NODE SETPOINT', controlType='TEMPERATURE SETPOINT', uniqueKey='FULL BUILDING - 1 ZONE ZONE AIR NODE'.
   **   ~~~   ** The getActuatorHandle function will still return the handle (= 284) but caller should take note that there is a risk of overwritting.
   ** Warning ** Data Exchange API: You seem to already have tried to get an Actuator Handle on this one.
   **   ~~~   ** Occurred for componentType='SYSTEM NODE SETPOINT', controlType='TEMPERATURE SETPOINT', uniqueKey='FULL BUILDING - 1 ZONE ZONE AIR NODE'.
   **   ~~~   ** The getActuatorHandle function will still return the handle (= 284) but caller should take note that there is a risk of overwritting.
   ** Warning ** Data Exchange API: You seem to already have tried to get an Actuator Handle on this one.
   **   ~~~   ** Occurred for componentType='SYSTEM NODE SETPOINT', controlType='TEMPERATURE SETPOINT', uniqueKey='FULL BUILDING - 1 ZONE ZONE AIR NODE'.
   **   ~~~   ** The getActuatorHandle function will still return the handle (= 284) but caller should take note that there is a risk of overwritting.
   ** Warning ** Data Exchange API: You seem to already have tried to get an Actuator Handle on this one.
   **   ~~~   ** Occurred for componentType='SYSTEM NODE SETPOINT', controlType='TEMPERATURE SETPOINT', uniqueKey='FULL BUILDING - 1 ZONE ZONE AIR NODE'.
   **   ~~~   ** The getActuatorHandle function will still return the handle (= 284) but caller should take note that there is a risk of overwritting.
   ** Warning ** Data Exchange API: You seem to already have tried to get an Actuator Handle on this one.
   **   ~~~   ** Occurred for componentType='SYSTEM NODE SETPOINT', controlType='TEMPERATURE SETPOINT', uniqueKey='FULL BUILDING - 1 ZONE ZONE AIR NODE'.
   **   ~~~   ** The getActuatorHandle function will still return the handle (= 284) but caller should take note that there is a risk of overwritting.
   ** Warning ** Data Exchange API: You seem to already have tried to get an Actuator Handle on this one.
   **   ~~~   ** Occurred for componentType='SYSTEM NODE SETPOINT', controlType='TEMPERATURE SETPOINT', uniqueKey='FULL BUILDING - 1 ZONE ZONE AIR NODE'.
   **   ~~~   ** The getActuatorHandle function will still return the handle (= 284) but caller should take note that there is a risk of overwritting.
   ** Warning ** Data Exchange API: You seem to already have tried to get an Actuator Handle on this one.
   **   ~~~   ** Occurred for componentType='SYSTEM NODE SETPOINT', controlType='TEMPERATURE SETPOINT', uniqueKey='FULL BUILDING - 1 ZONE ZONE AIR NODE'.
   **   ~~~   ** The getActuatorHandle function will still return the handle (= 284) but caller should take note that there is a risk of overwritting.
   ** Warning ** Data Exchange API: You seem to already have tried to get an Actuator Handle on this one.
   **   ~~~   ** Occurred for componentType='SYSTEM NODE SETPOINT', controlType='TEMPERATURE SETPOINT', uniqueKey='FULL BUILDING - 1 ZONE ZONE AIR NODE'.
   **   ~~~   ** The getActuatorHandle function will still return the handle (= 284) but caller should take note that there is a risk of overwritting.
   ** Warning ** Data Exchange API: You seem to already have tried to get an Actuator Handle on this one.
   **   ~~~   ** Occurred for componentType='SYSTEM NODE SETPOINT', controlType='TEMPERATURE SETPOINT', uniqueKey='FULL BUILDING - 1 ZONE ZONE AIR NODE'.
   **   ~~~   ** The getActuatorHandle function will still return the handle (= 284) but caller should take note that there is a risk of overwritting.
   ** Warning ** Data Exchange API: You seem to already have tried to get an Actuator Handle on this one.
   **   ~~~   ** Occurred for componentType='SYSTEM NODE SETPOINT', controlType='TEMPERATURE SETPOINT', uniqueKey='FULL BUILDING - 1 ZONE ZONE AIR NODE'.
   **   ~~~   ** The getActuatorHandle function will still return the handle (= 284) but caller should take note that there is a risk of overwritting.
   ** Warning ** Data Exchange API: You seem to already have tried to get an Actuator Handle on this one.
   **   ~~~   ** Occurred for componentType='SYSTEM NODE SETPOINT', controlType='TEMPERATURE SETPOINT', uniqueKey='FULL BUILDING - 1 ZONE ZONE AIR NODE'.
   **   ~~~   ** The getActuatorHandle function will still return the handle (= 284) but caller should take note that there is a risk of overwritting.
   ** Warning ** Data Exchange API: You seem to already have tried to get an Actuator Handle on this one.
   **   ~~~   ** Occurred for componentType='SYSTEM NODE SETPOINT', controlType='TEMPERATURE SETPOINT', uniqueKey='FULL BUILDING - 1 ZONE ZONE AIR NODE'.
   **   ~~~   ** The getActuatorHandle function will still return the handle (= 284) but caller should take note that there is a risk of overwritting.
   ** Warning ** Data Exchange API: You seem to already have tried to get an Actuator Handle on this one.
   **   ~~~   ** Occurred for componentType='SYSTEM NODE SETPOINT', controlType='TEMPERATURE SETPOINT', uniqueKey='FULL BUILDING - 1 ZONE ZONE AIR NODE'.
   **   ~~~   ** The getActuatorHandle function will still return the handle (= 284) but caller should take note that there is a risk of overwritting.
   ** Warning ** Data Exchange API: You seem to already have tried to get an Actuator Handle on this one.
   **   ~~~   ** Occurred for componentType='SYSTEM NODE SETPOINT', controlType='TEMPERATURE SETPOINT', uniqueKey='FULL BUILDING - 1 ZONE ZONE AIR NODE'.
   **   ~~~   ** The getActuatorHandle function will still return the handle (= 284) but caller should take note that there is a risk of overwritting.
   ** Warning ** Data Exchange API: You seem to already have tried to get an Actuator Handle on this one.
   **   ~~~   ** Occurred for componentType='SYSTEM NODE SETPOINT', controlType='TEMPERATURE SETPOINT', uniqueKey='FULL BUILDING - 1 ZONE ZONE AIR NODE'.
   **   ~~~   ** The getActuatorHandle function will still return the handle (= 284) but caller should take note that there is a risk of overwritting.
   ** Warning ** Data Exchange API: You seem to already have tried to get an Actuator Handle on this one.
   **   ~~~   ** Occurred for componentType='SYSTEM NODE SETPOINT', controlType='TEMPERATURE SETPOINT', uniqueKey='FULL BUILDING - 1 ZONE ZONE AIR NODE'.
   **   ~~~   ** The getActuatorHandle function will still return the handle (= 284) but caller should take note that there is a risk of overwritting.
   ** Warning ** Data Exchange API: You seem to already have tried to get an Actuator Handle on this one.
   **   ~~~   ** Occurred for componentType='SYSTEM NODE SETPOINT', controlType='TEMPERATURE SETPOINT', uniqueKey='FULL BUILDING - 1 ZONE ZONE AIR NODE'.
   **   ~~~   ** The getActuatorHandle function will still return the handle (= 284) but caller should take note that there is a risk of overwritting.
   ** Warning ** Data Exchange API: You seem to already have tried to get an Actuator Handle on this one.
   **   ~~~   ** Occurred for componentType='SYSTEM NODE SETPOINT', controlType='TEMPERATURE SETPOINT', uniqueKey='FULL BUILDING - 1 ZONE ZONE AIR NODE'.
   **   ~~~   ** The getActuatorHandle function will still return the handle (= 284) but caller should take note that there is a risk of overwritting.
   ** Warning ** Data Exchange API: You seem to already have tried to get an Actuator Handle on this one.
   **   ~~~   ** Occurred for componentType='SYSTEM NODE SETPOINT', controlType='TEMPERATURE SETPOINT', uniqueKey='FULL BUILDING - 1 ZONE ZONE AIR NODE'.
   **   ~~~   ** The getActuatorHandle function will still return the handle (= 284) but caller should take note that there is a risk of overwritting.
   ** Warning ** Data Exchange API: You seem to already have tried to get an Actuator Handle on this one.
   **   ~~~   ** Occurred for componentType='SYSTEM NODE SETPOINT', controlType='TEMPERATURE SETPOINT', uniqueKey='FULL BUILDING - 1 ZONE ZONE AIR NODE'.
   **   ~~~   ** The getActuatorHandle function will still return the handle (= 284) but caller should take note that there is a risk of overwritting.
   ** Warning ** Data Exchange API: You seem to already have tried to get an Actuator Handle on this one.
   **   ~~~   ** Occurred for componentType='SYSTEM NODE SETPOINT', controlType='TEMPERATURE SETPOINT', uniqueKey='FULL BUILDING - 1 ZONE ZONE AIR NODE'.
   **   ~~~   ** The getActuatorHandle function will still return the handle (= 284) but caller should take note that there is a risk of overwritting.
   ** Warning ** Data Exchange API: You seem to already have tried to get an Actuator Handle on this one.
   **   ~~~   ** Occurred for componentType='SYSTEM NODE SETPOINT', controlType='TEMPERATURE SETPOINT', uniqueKey='FULL BUILDING - 1 ZONE ZONE AIR NODE'.
   **   ~~~   ** The getActuatorHandle function will still return the handle (= 284) but caller should take note that there is a risk of overwritting.
   ** Warning ** Data Exchange API: You seem to already have tried to get an Actuator Handle on this one.
   **   ~~~   ** Occurred for componentType='SYSTEM NODE SETPOINT', controlType='TEMPERATURE SETPOINT', uniqueKey='FULL BUILDING - 1 ZONE ZONE AIR NODE'.
   **   ~~~   ** The getActuatorHandle function will still return the handle (= 284) but caller should take note that there is a risk of overwritting.
   ** Warning ** Data Exchange API: You seem to already have tried to get an Actuator Handle on this one.
   **   ~~~   ** Occurred for componentType='SYSTEM NODE SETPOINT', controlType='TEMPERATURE SETPOINT', uniqueKey='FULL BUILDING - 1 ZONE ZONE AIR NODE'.
   **   ~~~   ** The getActuatorHandle function will still return the handle (= 284) but caller should take note that there is a risk of overwritting.
   ************* Simulation Error Summary *************
   ************* There are 2 unused schedules in input.
   ************* Use Output:Diagnostics,DisplayUnusedSchedules; to see them.
   ************* EnergyPlus Warmup Error Summary. During Warmup: 1152 Warning; 0 Severe Errors.
   ************* EnergyPlus Sizing Error Summary. During Sizing: 0 Warning; 0 Severe Errors.
   ************* EnergyPlus Completed Successfully-- 1345 Warning; 0 Severe Errors; Elapsed Time=00hr 00min  0.27sec
